@<TRIPOS>MOLECULE
guest-1_confgen4.mol2 : confsearch ligand conformer 1
          17          16           1
SMALL
USER_CHARGES
 
@<TRIPOS>ATOM
       1    N1      19.626273   18.841317   24.138336 N.4        1 MOL1        -0.5891
       2    H1      19.653235   17.818303   24.187425 H          1 MOL1         0.3726
       3    H2      18.640222   19.117920   24.168186 H          1 MOL1         0.3726
       4    H3      20.058147   19.190703   24.999918 H          1 MOL1         0.3726
       5    C1      20.327081   19.369280   22.902423 C.3        1 MOL1         0.0314
       6    H4      21.375797   19.064008   22.952675 H          1 MOL1         0.0999
       7    H5      20.286521   20.461527   22.932008 H          1 MOL1         0.0999
       8    C2      19.703404   18.863739   21.588758 C.3        1 MOL1        -0.1308
       9    H6      19.731876   17.766101   21.569514 H          1 MOL1         0.1025
      10    H7      18.646400   19.158935   21.548848 H          1 MOL1         0.1025
      11    C3      20.446152   19.424293   20.356027 C.3        1 MOL1        -0.1243
      12    H8      21.505000   19.131927   20.397118 H          1 MOL1         0.1025
      13    H9      20.420791   20.523049   20.376431 H          1 MOL1         0.1025
      14    C4      19.826091   18.921371   19.034456 C.3        1 MOL1        -0.2258
      15    H10     20.367533   19.330480   18.171601 H          1 MOL1         0.1036
      16    H11     18.775584   19.228403   18.948585 H          1 MOL1         0.1036
      17    H12     19.868302   17.826290   18.969471 H          1 MOL1         0.1036
@<TRIPOS>BOND
    1     1     2    1
    2     1     3    1
    3     1     4    1
    4     1     5    1
    5     5     6    1
    6     5     7    1
    7     5     8    1
    8     8     9    1
    9     8    10    1
   10     8    11    1
   11    11    12    1
   12    11    13    1
   13    11    14    1
   14    14    15    1
   15    14    16    1
   16    14    17    1
@<TRIPOS>SUBSTRUCTURE
       1 MOL1            1 RESIDUE      1      MOL     
@<SCITEGIC>MOL_PROPERTY
VConf Rank
SciTegic.value.IntegerValue
1

@<SCITEGIC>MOL_PROPERTY
Conf_Id
SciTegic.value.IntegerValue
7

@<SCITEGIC>MOL_PROPERTY
Delta U+W
SciTegic.value.DoubleValue
0.000

@<SCITEGIC>MOL_PROPERTY
U+W
SciTegic.value.DoubleValue
-15.865

@<SCITEGIC>MOL_PROPERTY
Grad RMS
SciTegic.value.DoubleValue
0.000000

@<SCITEGIC>MOL_PROPERTY
U
SciTegic.value.DoubleValue
44.664

@<SCITEGIC>MOL_PROPERTY
W
SciTegic.value.DoubleValue
-60.529

@<SCITEGIC>MOL_PROPERTY
W(PB)
SciTegic.value.DoubleValue
-62.309

@<SCITEGIC>MOL_PROPERTY
W(SA)
SciTegic.value.DoubleValue
1.780

@<SCITEGIC>MOL_PROPERTY
Valence
SciTegic.value.DoubleValue
0.872

@<SCITEGIC>MOL_PROPERTY
Coulomb
SciTegic.value.DoubleValue
43.648

@<SCITEGIC>MOL_PROPERTY
VdW
SciTegic.value.DoubleValue
0.144

@<SCITEGIC>MOL_PROPERTY
VdW6
SciTegic.value.DoubleValue
-2.370

@<SCITEGIC>MOL_PROPERTY
VdW12
SciTegic.value.DoubleValue
2.515

@<SCITEGIC>MOL_PROPERTY
Bond
SciTegic.value.DoubleValue
0.080

@<SCITEGIC>MOL_PROPERTY
Angle
SciTegic.value.DoubleValue
0.376

@<SCITEGIC>MOL_PROPERTY
Pdih
SciTegic.value.DoubleValue
0.416

@<SCITEGIC>MOL_PROPERTY
Idih
SciTegic.value.DoubleValue
0.000

@<SCITEGIC>MOL_PROPERTY
Tether
SciTegic.value.DoubleValue
0.000

@<TRIPOS>MOLECULE
guest-1_confgen4.mol2 : confsearch ligand conformer 2
          17          16           1
SMALL
USER_CHARGES
 
@<TRIPOS>ATOM
       1    N1      19.553913   18.986547   24.002571 N.4        1 MOL1        -0.5891
       2    H1      20.435116   18.738429   24.462534 H          1 MOL1         0.3726
       3    H2      18.963237   18.149503   24.012925 H          1 MOL1         0.3726
       4    H3      19.093700   19.681475   24.599331 H          1 MOL1         0.3726
       5    C1      19.774461   19.508296   22.596693 C.3        1 MOL1         0.0314
       6    H4      20.383835   20.413587   22.663920 H          1 MOL1         0.0999
       7    H5      18.800097   19.780705   22.182874 H          1 MOL1         0.0999
       8    C2      20.464832   18.487387   21.671981 C.3        1 MOL1        -0.1308
       9    H6      21.424005   18.190335   22.116530 H          1 MOL1         0.1025
      10    H7      19.853599   17.577495   21.605803 H          1 MOL1         0.1025
      11    C3      20.719539   19.045426   20.252220 C.3        1 MOL1        -0.1243
      12    H8      21.283005   18.301246   19.671975 H          1 MOL1         0.1025
      13    H9      21.358954   19.937336   20.314080 H          1 MOL1         0.1025
      14    C4      19.416256   19.392345   19.496536 C.3        1 MOL1        -0.2258
      15    H10     18.755839   18.518276   19.425985 H          1 MOL1         0.1036
      16    H11     19.640720   19.725539   18.474966 H          1 MOL1         0.1036
      17    H12     18.864275   20.199848   19.993875 H          1 MOL1         0.1036
@<TRIPOS>BOND
    1     1     2    1
    2     1     3    1
    3     1     4    1
    4     1     5    1
    5     5     6    1
    6     5     7    1
    7     5     8    1
    8     8     9    1
    9     8    10    1
   10     8    11    1
   11    11    12    1
   12    11    13    1
   13    11    14    1
   14    14    15    1
   15    14    16    1
   16    14    17    1
@<TRIPOS>SUBSTRUCTURE
       1 MOL1            1 RESIDUE      1      MOL     
@<SCITEGIC>MOL_PROPERTY
VConf Rank
SciTegic.value.IntegerValue
2

@<SCITEGIC>MOL_PROPERTY
Conf_Id
SciTegic.value.IntegerValue
36

@<SCITEGIC>MOL_PROPERTY
Delta U+W
SciTegic.value.DoubleValue
0.275

@<SCITEGIC>MOL_PROPERTY
U+W
SciTegic.value.DoubleValue
-15.590

@<SCITEGIC>MOL_PROPERTY
Grad RMS
SciTegic.value.DoubleValue
0.000000

@<SCITEGIC>MOL_PROPERTY
U
SciTegic.value.DoubleValue
45.174

@<SCITEGIC>MOL_PROPERTY
W
SciTegic.value.DoubleValue
-60.765

@<SCITEGIC>MOL_PROPERTY
W(PB)
SciTegic.value.DoubleValue
-62.518

@<SCITEGIC>MOL_PROPERTY
W(SA)
SciTegic.value.DoubleValue
1.754

@<SCITEGIC>MOL_PROPERTY
Valence
SciTegic.value.DoubleValue
1.161

@<SCITEGIC>MOL_PROPERTY
Coulomb
SciTegic.value.DoubleValue
43.789

@<SCITEGIC>MOL_PROPERTY
VdW
SciTegic.value.DoubleValue
0.224

@<SCITEGIC>MOL_PROPERTY
VdW6
SciTegic.value.DoubleValue
-2.897

@<SCITEGIC>MOL_PROPERTY
VdW12
SciTegic.value.DoubleValue
3.121

@<SCITEGIC>MOL_PROPERTY
Bond
SciTegic.value.DoubleValue
0.100

@<SCITEGIC>MOL_PROPERTY
Angle
SciTegic.value.DoubleValue
0.500

@<SCITEGIC>MOL_PROPERTY
Pdih
SciTegic.value.DoubleValue
0.561

@<SCITEGIC>MOL_PROPERTY
Idih
SciTegic.value.DoubleValue
0.000

@<SCITEGIC>MOL_PROPERTY
Tether
SciTegic.value.DoubleValue
0.000

@<TRIPOS>MOLECULE
guest-1_confgen4.mol2 : confsearch ligand conformer 3
          17          16           1
SMALL
USER_CHARGES
 
@<TRIPOS>ATOM
       1    N1      19.444350   18.203795   23.213014 N.4        1 MOL1        -0.5891
       2    H1      19.347557   17.546207   22.435161 H          1 MOL1         0.3726
       3    H2      18.507388   18.559570   23.425162 H          1 MOL1         0.3726
       4    H3      19.749188   17.663932   24.029375 H          1 MOL1         0.3726
       5    C1      20.411724   19.324675   22.884618 C.3        1 MOL1         0.0314
       6    H4      21.405529   18.894187   22.735177 H          1 MOL1         0.0999
       7    H5      20.454516   19.977166   23.760953 H          1 MOL1         0.0999
       8    C2      20.015292   20.164020   21.651754 C.3        1 MOL1        -0.1308
       9    H6      18.941214   20.390354   21.681068 H          1 MOL1         0.1025
      10    H7      20.529085   21.131661   21.726150 H          1 MOL1         0.1025
      11    C3      20.394958   19.526283   20.290927 C.3        1 MOL1        -0.1243
      12    H8      21.481069   19.362983   20.249497 H          1 MOL1         0.1025
      13    H9      20.165738   20.248220   19.494526 H          1 MOL1         0.1025
      14    C4      19.662677   18.201226   19.979686 C.3        1 MOL1        -0.2258
      15    H10     20.016047   17.385854   20.621538 H          1 MOL1         0.1036
      16    H11     19.849664   17.897967   18.941310 H          1 MOL1         0.1036
      17    H12     18.577201   18.306616   20.105343 H          1 MOL1         0.1036
@<TRIPOS>BOND
    1     1     2    1
    2     1     3    1
    3     1     4    1
    4     1     5    1
    5     5     6    1
    6     5     7    1
    7     5     8    1
    8     8     9    1
    9     8    10    1
   10     8    11    1
   11    11    12    1
   12    11    13    1
   13    11    14    1
   14    14    15    1
   15    14    16    1
   16    14    17    1
@<TRIPOS>SUBSTRUCTURE
       1 MOL1            1 RESIDUE      1      MOL     
@<SCITEGIC>MOL_PROPERTY
VConf Rank
SciTegic.value.IntegerValue
3

@<SCITEGIC>MOL_PROPERTY
Conf_Id
SciTegic.value.IntegerValue
19

@<SCITEGIC>MOL_PROPERTY
Delta U+W
SciTegic.value.DoubleValue
2.662

@<SCITEGIC>MOL_PROPERTY
U+W
SciTegic.value.DoubleValue
-13.203

@<SCITEGIC>MOL_PROPERTY
Grad RMS
SciTegic.value.DoubleValue
0.000000

@<SCITEGIC>MOL_PROPERTY
U
SciTegic.value.DoubleValue
47.423

@<SCITEGIC>MOL_PROPERTY
W
SciTegic.value.DoubleValue
-60.626

@<SCITEGIC>MOL_PROPERTY
W(PB)
SciTegic.value.DoubleValue
-62.328

@<SCITEGIC>MOL_PROPERTY
W(SA)
SciTegic.value.DoubleValue
1.702

@<SCITEGIC>MOL_PROPERTY
Valence
SciTegic.value.DoubleValue
2.414

@<SCITEGIC>MOL_PROPERTY
Coulomb
SciTegic.value.DoubleValue
44.831

@<SCITEGIC>MOL_PROPERTY
VdW
SciTegic.value.DoubleValue
0.178

@<SCITEGIC>MOL_PROPERTY
VdW6
SciTegic.value.DoubleValue
-3.743

@<SCITEGIC>MOL_PROPERTY
VdW12
SciTegic.value.DoubleValue
3.921

@<SCITEGIC>MOL_PROPERTY
Bond
SciTegic.value.DoubleValue
0.138

@<SCITEGIC>MOL_PROPERTY
Angle
SciTegic.value.DoubleValue
0.941

@<SCITEGIC>MOL_PROPERTY
Pdih
SciTegic.value.DoubleValue
1.335

@<SCITEGIC>MOL_PROPERTY
Idih
SciTegic.value.DoubleValue
0.000

@<SCITEGIC>MOL_PROPERTY
Tether
SciTegic.value.DoubleValue
0.000

@<TRIPOS>MOLECULE
guest-1_confgen4.mol2 : confsearch ligand conformer 4
          17          16           1
SMALL
USER_CHARGES
 
@<TRIPOS>ATOM
       1    N1      18.977030   18.803172   23.204123 N.4        1 MOL1        -0.5891
       2    H1      18.516046   19.245554   24.005756 H          1 MOL1         0.3726
       3    H2      19.090473   17.811912   23.436529 H          1 MOL1         0.3726
       4    H3      18.327023   18.854923   22.415671 H          1 MOL1         0.3726
       5    C1      20.304606   19.462071   22.882510 C.3        1 MOL1         0.0314
       6    H4      20.935135   19.360928   23.770058 H          1 MOL1         0.0999
       7    H5      20.131684   20.527847   22.710693 H          1 MOL1         0.0999
       8    C2      21.039586   18.850242   21.671279 C.3        1 MOL1        -0.1308
       9    H6      22.102162   19.114014   21.756144 H          1 MOL1         0.1025
      10    H7      20.996579   17.754124   21.720319 H          1 MOL1         0.1025
      11    C3      20.533465   19.348570   20.293522 C.3        1 MOL1        -0.1243
      12    H8      21.188935   18.935404   19.514007 H          1 MOL1         0.1025
      13    H9      20.640923   20.440744   20.233286 H          1 MOL1         0.1025
      14    C4      19.074312   18.955945   19.968565 C.3        1 MOL1        -0.2258
      15    H10     18.909610   17.880093   20.111983 H          1 MOL1         0.1036
      16    H11     18.840842   19.191841   18.922143 H          1 MOL1         0.1036
      17    H12     18.360799   19.509462   20.590014 H          1 MOL1         0.1036
@<TRIPOS>BOND
    1     1     2    1
    2     1     3    1
    3     1     4    1
    4     1     5    1
    5     5     6    1
    6     5     7    1
    7     5     8    1
    8     8     9    1
    9     8    10    1
   10     8    11    1
   11    11    12    1
   12    11    13    1
   13    11    14    1
   14    14    15    1
   15    14    16    1
   16    14    17    1
@<TRIPOS>SUBSTRUCTURE
       1 MOL1            1 RESIDUE      1      MOL     
@<SCITEGIC>MOL_PROPERTY
VConf Rank
SciTegic.value.IntegerValue
4

@<SCITEGIC>MOL_PROPERTY
Conf_Id
SciTegic.value.IntegerValue
44

@<SCITEGIC>MOL_PROPERTY
Delta U+W
SciTegic.value.DoubleValue
2.712

@<SCITEGIC>MOL_PROPERTY
U+W
SciTegic.value.DoubleValue
-13.153

@<SCITEGIC>MOL_PROPERTY
Grad RMS
SciTegic.value.DoubleValue
0.000000

@<SCITEGIC>MOL_PROPERTY
U
SciTegic.value.DoubleValue
47.423

@<SCITEGIC>MOL_PROPERTY
W
SciTegic.value.DoubleValue
-60.576

@<SCITEGIC>MOL_PROPERTY
W(PB)
SciTegic.value.DoubleValue
-62.262

@<SCITEGIC>MOL_PROPERTY
W(SA)
SciTegic.value.DoubleValue
1.687

@<SCITEGIC>MOL_PROPERTY
Valence
SciTegic.value.DoubleValue
2.414

@<SCITEGIC>MOL_PROPERTY
Coulomb
SciTegic.value.DoubleValue
44.831

@<SCITEGIC>MOL_PROPERTY
VdW
SciTegic.value.DoubleValue
0.178

@<SCITEGIC>MOL_PROPERTY
VdW6
SciTegic.value.DoubleValue
-3.743

@<SCITEGIC>MOL_PROPERTY
VdW12
SciTegic.value.DoubleValue
3.922

@<SCITEGIC>MOL_PROPERTY
Bond
SciTegic.value.DoubleValue
0.138

@<SCITEGIC>MOL_PROPERTY
Angle
SciTegic.value.DoubleValue
0.941

@<SCITEGIC>MOL_PROPERTY
Pdih
SciTegic.value.DoubleValue
1.335

@<SCITEGIC>MOL_PROPERTY
Idih
SciTegic.value.DoubleValue
0.000

@<SCITEGIC>MOL_PROPERTY
Tether
SciTegic.value.DoubleValue
0.000

@<TRIPOS>MOLECULE
guest-1_confgen4.mol2 : confsearch ligand conformer 5
          17          16           1
SMALL
USER_CHARGES
 
@<TRIPOS>ATOM
       1    N1      19.139740   18.931707   23.423294 N.4        1 MOL1        -0.5891
       2    H1      18.357573   18.955467   22.762918 H          1 MOL1         0.3726
       3    H2      19.164187   19.839879   23.896585 H          1 MOL1         0.3726
       4    H3      18.909109   18.231222   24.135191 H          1 MOL1         0.3726
       5    C1      20.451628   18.619843   22.729357 C.3        1 MOL1         0.0314
       6    H4      20.367380   17.630189   22.272968 H          1 MOL1         0.0999
       7    H5      21.230619   18.573473   23.495230 H          1 MOL1         0.0999
       8    C2      20.850469   19.654928   21.657235 C.3        1 MOL1        -0.1308
       9    H6      20.972273   20.637327   22.132425 H          1 MOL1         0.1025
      10    H7      21.836803   19.384367   21.257554 H          1 MOL1         0.1025
      11    C3      19.841482   19.771219   20.487629 C.3        1 MOL1        -0.1243
      12    H8      20.199872   20.537601   19.786117 H          1 MOL1         0.1025
      13    H9      18.872214   20.130331   20.859400 H          1 MOL1         0.1025
      14    C4      19.645682   18.442303   19.722486 C.3        1 MOL1        -0.2258
      15    H10     20.601935   18.062937   19.339434 H          1 MOL1         0.1036
      16    H11     18.975467   18.586744   18.865213 H          1 MOL1         0.1036
      17    H12     19.202210   17.669228   20.362515 H          1 MOL1         0.1036
@<TRIPOS>BOND
    1     1     2    1
    2     1     3    1
    3     1     4    1
    4     1     5    1
    5     5     6    1
    6     5     7    1
    7     5     8    1
    8     8     9    1
    9     8    10    1
   10     8    11    1
   11    11    12    1
   12    11    13    1
   13    11    14    1
   14    14    15    1
   15    14    16    1
   16    14    17    1
@<TRIPOS>SUBSTRUCTURE
       1 MOL1            1 RESIDUE      1      MOL     
@<SCITEGIC>MOL_PROPERTY
VConf Rank
SciTegic.value.IntegerValue
5

@<SCITEGIC>MOL_PROPERTY
Conf_Id
SciTegic.value.IntegerValue
1

@<SCITEGIC>MOL_PROPERTY
Delta U+W
SciTegic.value.DoubleValue
0.685

@<SCITEGIC>MOL_PROPERTY
U+W
SciTegic.value.DoubleValue
-15.179

@<SCITEGIC>MOL_PROPERTY
Grad RMS
SciTegic.value.DoubleValue
0.000000

@<SCITEGIC>MOL_PROPERTY
U
SciTegic.value.DoubleValue
45.697

@<SCITEGIC>MOL_PROPERTY
W
SciTegic.value.DoubleValue
-60.876

@<SCITEGIC>MOL_PROPERTY
W(PB)
SciTegic.value.DoubleValue
-62.586

@<SCITEGIC>MOL_PROPERTY
W(SA)
SciTegic.value.DoubleValue
1.710

@<SCITEGIC>MOL_PROPERTY
Valence
SciTegic.value.DoubleValue
1.263

@<SCITEGIC>MOL_PROPERTY
Coulomb
SciTegic.value.DoubleValue
44.179

@<SCITEGIC>MOL_PROPERTY
VdW
SciTegic.value.DoubleValue
0.255

@<SCITEGIC>MOL_PROPERTY
VdW6
SciTegic.value.DoubleValue
-3.552

@<SCITEGIC>MOL_PROPERTY
VdW12
SciTegic.value.DoubleValue
3.807

@<SCITEGIC>MOL_PROPERTY
Bond
SciTegic.value.DoubleValue
0.125

@<SCITEGIC>MOL_PROPERTY
Angle
SciTegic.value.DoubleValue
0.616

@<SCITEGIC>MOL_PROPERTY
Pdih
SciTegic.value.DoubleValue
0.521

@<SCITEGIC>MOL_PROPERTY
Idih
SciTegic.value.DoubleValue
0.000

@<SCITEGIC>MOL_PROPERTY
Tether
SciTegic.value.DoubleValue
0.000

@<TRIPOS>MOLECULE
guest-1_confgen4.mol2 : confsearch ligand conformer 6
          17          16           1
SMALL
USER_CHARGES
 
@<TRIPOS>ATOM
       1    N1      19.605728   18.334130   23.432034 N.4        1 MOL1        -0.5891
       2    H1      20.485602   18.145389   23.921499 H          1 MOL1         0.3726
       3    H2      19.447552   17.557741   22.783460 H          1 MOL1         0.3726
       4    H3      18.860047   18.294101   24.134192 H          1 MOL1         0.3726
       5    C1      19.633010   19.669512   22.713793 C.3        1 MOL1         0.0314
       6    H4      19.766888   20.450276   23.467465 H          1 MOL1         0.0999
       7    H5      18.659329   19.820364   22.240512 H          1 MOL1         0.0999
       8    C2      20.749382   19.784617   21.655311 C.3        1 MOL1        -0.1308
       9    H6      20.733037   20.799589   21.236541 H          1 MOL1         0.1025
      10    H7      21.724916   19.672454   22.146738 H          1 MOL1         0.1025
      11    C3      20.633183   18.756240   20.502707 C.3        1 MOL1        -0.1243
      12    H8      20.740066   17.735765   20.894958 H          1 MOL1         0.1025
      13    H9      21.473743   18.904414   19.810314 H          1 MOL1         0.1025
      14    C4      19.307697   18.875501   19.716155 C.3        1 MOL1        -0.2258
      15    H10     19.296823   18.174542   18.871462 H          1 MOL1         0.1036
      16    H11     19.178179   19.888062   19.312407 H          1 MOL1         0.1036
      17    H12     18.440804   18.645342   20.348193 H          1 MOL1         0.1036
@<TRIPOS>BOND
    1     1     2    1
    2     1     3    1
    3     1     4    1
    4     1     5    1
    5     5     6    1
    6     5     7    1
    7     5     8    1
    8     8     9    1
    9     8    10    1
   10     8    11    1
   11    11    12    1
   12    11    13    1
   13    11    14    1
   14    14    15    1
   15    14    16    1
   16    14    17    1
@<TRIPOS>SUBSTRUCTURE
       1 MOL1            1 RESIDUE      1      MOL     
@<SCITEGIC>MOL_PROPERTY
VConf Rank
SciTegic.value.IntegerValue
6

@<SCITEGIC>MOL_PROPERTY
Conf_Id
SciTegic.value.IntegerValue
43

@<SCITEGIC>MOL_PROPERTY
Delta U+W
SciTegic.value.DoubleValue
0.642

@<SCITEGIC>MOL_PROPERTY
U+W
SciTegic.value.DoubleValue
-15.222

@<SCITEGIC>MOL_PROPERTY
Grad RMS
SciTegic.value.DoubleValue
0.000000

@<SCITEGIC>MOL_PROPERTY
U
SciTegic.value.DoubleValue
45.697

@<SCITEGIC>MOL_PROPERTY
W
SciTegic.value.DoubleValue
-60.919

@<SCITEGIC>MOL_PROPERTY
W(PB)
SciTegic.value.DoubleValue
-62.631

@<SCITEGIC>MOL_PROPERTY
W(SA)
SciTegic.value.DoubleValue
1.712

@<SCITEGIC>MOL_PROPERTY
Valence
SciTegic.value.DoubleValue
1.262

@<SCITEGIC>MOL_PROPERTY
Coulomb
SciTegic.value.DoubleValue
44.179

@<SCITEGIC>MOL_PROPERTY
VdW
SciTegic.value.DoubleValue
0.255

@<SCITEGIC>MOL_PROPERTY
VdW6
SciTegic.value.DoubleValue
-3.552

@<SCITEGIC>MOL_PROPERTY
VdW12
SciTegic.value.DoubleValue
3.807

@<SCITEGIC>MOL_PROPERTY
Bond
SciTegic.value.DoubleValue
0.125

@<SCITEGIC>MOL_PROPERTY
Angle
SciTegic.value.DoubleValue
0.616

@<SCITEGIC>MOL_PROPERTY
Pdih
SciTegic.value.DoubleValue
0.521

@<SCITEGIC>MOL_PROPERTY
Idih
SciTegic.value.DoubleValue
0.000

@<SCITEGIC>MOL_PROPERTY
Tether
SciTegic.value.DoubleValue
0.000

@<TRIPOS>MOLECULE
guest-1_confgen4.mol2 : confsearch ligand conformer 7
          17          16           1
SMALL
USER_CHARGES
 
@<TRIPOS>ATOM
       1    N1      17.521750   18.252843   21.516802 N.4        1 MOL1        -0.5891
       2    H1      17.316528   18.551489   20.558475 H          1 MOL1         0.3726
       3    H2      17.125215   18.959744   22.143498 H          1 MOL1         0.3726
       4    H3      16.996145   17.387275   21.676304 H          1 MOL1         0.3726
       5    C1      19.007624   18.060201   21.745766 C.3        1 MOL1         0.0314
       6    H4      19.354471   17.274775   21.068769 H          1 MOL1         0.0999
       7    H5      19.148748   17.713736   22.773175 H          1 MOL1         0.0999
       8    C2      19.828322   19.342119   21.514676 C.3        1 MOL1        -0.1308
       9    H6      19.671971   19.695656   20.486787 H          1 MOL1         0.1025
      10    H7      19.467060   20.133053   22.185424 H          1 MOL1         0.1025
      11    C3      21.334595   19.102502   21.758081 C.3        1 MOL1        -0.1243
      12    H8      21.696063   18.308558   21.089261 H          1 MOL1         0.1025
      13    H9      21.491417   18.745495   22.785836 H          1 MOL1         0.1025
      14    C4      22.164303   20.384157   21.528079 C.3        1 MOL1        -0.2258
      15    H10     23.230564   20.193040   21.705876 H          1 MOL1         0.1036
      16    H11     21.848712   21.186680   22.207465 H          1 MOL1         0.1036
      17    H12     22.054919   20.746323   20.497508 H          1 MOL1         0.1036
@<TRIPOS>BOND
    1     1     2    1
    2     1     3    1
    3     1     4    1
    4     1     5    1
    5     5     6    1
    6     5     7    1
    7     5     8    1
    8     8     9    1
    9     8    10    1
   10     8    11    1
   11    11    12    1
   12    11    13    1
   13    11    14    1
   14    14    15    1
   15    14    16    1
   16    14    17    1
@<TRIPOS>SUBSTRUCTURE
       1 MOL1            1 RESIDUE      1      MOL     
@<SCITEGIC>MOL_PROPERTY
VConf Rank
SciTegic.value.IntegerValue
7

@<SCITEGIC>MOL_PROPERTY
Conf_Id
SciTegic.value.IntegerValue
7

@<SCITEGIC>MOL_PROPERTY
Delta U+W
SciTegic.value.DoubleValue
0.000

@<SCITEGIC>MOL_PROPERTY
U+W
SciTegic.value.DoubleValue
-15.865

@<SCITEGIC>MOL_PROPERTY
Grad RMS
SciTegic.value.DoubleValue
0.000000

@<SCITEGIC>MOL_PROPERTY
U
SciTegic.value.DoubleValue
44.664

@<SCITEGIC>MOL_PROPERTY
W
SciTegic.value.DoubleValue
-60.529

@<SCITEGIC>MOL_PROPERTY
W(PB)
SciTegic.value.DoubleValue
-62.309

@<SCITEGIC>MOL_PROPERTY
W(SA)
SciTegic.value.DoubleValue
1.780

@<SCITEGIC>MOL_PROPERTY
Valence
SciTegic.value.DoubleValue
0.872

@<SCITEGIC>MOL_PROPERTY
Coulomb
SciTegic.value.DoubleValue
43.648

@<SCITEGIC>MOL_PROPERTY
VdW
SciTegic.value.DoubleValue
0.144

@<SCITEGIC>MOL_PROPERTY
VdW6
SciTegic.value.DoubleValue
-2.370

@<SCITEGIC>MOL_PROPERTY
VdW12
SciTegic.value.DoubleValue
2.515

@<SCITEGIC>MOL_PROPERTY
Bond
SciTegic.value.DoubleValue
0.080

@<SCITEGIC>MOL_PROPERTY
Angle
SciTegic.value.DoubleValue
0.376

@<SCITEGIC>MOL_PROPERTY
Pdih
SciTegic.value.DoubleValue
0.416

@<SCITEGIC>MOL_PROPERTY
Idih
SciTegic.value.DoubleValue
0.000

@<SCITEGIC>MOL_PROPERTY
Tether
SciTegic.value.DoubleValue
0.000

@<TRIPOS>MOLECULE
guest-1_confgen4.mol2 : confsearch ligand conformer 8
          17          16           1
SMALL
USER_CHARGES
 
@<TRIPOS>ATOM
       1    N1      18.154118   19.041710   23.256156 N.4        1 MOL1        -0.5891
       2    H1      18.225573   19.876311   23.846058 H          1 MOL1         0.3726
       3    H2      18.498642   18.251644   23.810001 H          1 MOL1         0.3726
       4    H3      17.155160   18.877502   23.095029 H          1 MOL1         0.3726
       5    C1      18.916593   19.198602   21.955627 C.3        1 MOL1         0.0314
       6    H4      18.478418   20.035985   21.405900 H          1 MOL1         0.0999
       7    H5      18.769751   18.288448   21.368349 H          1 MOL1         0.0999
       8    C2      20.423214   19.446729   22.161741 C.3        1 MOL1        -0.1308
       9    H6      20.558663   20.339958   22.785980 H          1 MOL1         0.1025
      10    H7      20.862957   18.606463   22.715335 H          1 MOL1         0.1025
      11    C3      21.182985   19.644136   20.829155 C.3        1 MOL1        -0.1243
      12    H8      22.230107   19.895394   21.049123 H          1 MOL1         0.1025
      13    H9      20.765643   20.505688   20.289029 H          1 MOL1         0.1025
      14    C4      21.144713   18.393771   19.920816 C.3        1 MOL1        -0.2258
      15    H10     21.551272   17.515914   20.439664 H          1 MOL1         0.1036
      16    H11     21.745717   18.556276   19.016718 H          1 MOL1         0.1036
      17    H12     20.121854   18.159242   19.600119 H          1 MOL1         0.1036
@<TRIPOS>BOND
    1     1     2    1
    2     1     3    1
    3     1     4    1
    4     1     5    1
    5     5     6    1
    6     5     7    1
    7     5     8    1
    8     8     9    1
    9     8    10    1
   10     8    11    1
   11    11    12    1
   12    11    13    1
   13    11    14    1
   14    14    15    1
   15    14    16    1
   16    14    17    1
@<TRIPOS>SUBSTRUCTURE
       1 MOL1            1 RESIDUE      1      MOL     
@<SCITEGIC>MOL_PROPERTY
VConf Rank
SciTegic.value.IntegerValue
8

@<SCITEGIC>MOL_PROPERTY
Conf_Id
SciTegic.value.IntegerValue
36

@<SCITEGIC>MOL_PROPERTY
Delta U+W
SciTegic.value.DoubleValue
0.275

@<SCITEGIC>MOL_PROPERTY
U+W
SciTegic.value.DoubleValue
-15.590

@<SCITEGIC>MOL_PROPERTY
Grad RMS
SciTegic.value.DoubleValue
0.000000

@<SCITEGIC>MOL_PROPERTY
U
SciTegic.value.DoubleValue
45.174

@<SCITEGIC>MOL_PROPERTY
W
SciTegic.value.DoubleValue
-60.765

@<SCITEGIC>MOL_PROPERTY
W(PB)
SciTegic.value.DoubleValue
-62.518

@<SCITEGIC>MOL_PROPERTY
W(SA)
SciTegic.value.DoubleValue
1.754

@<SCITEGIC>MOL_PROPERTY
Valence
SciTegic.value.DoubleValue
1.161

@<SCITEGIC>MOL_PROPERTY
Coulomb
SciTegic.value.DoubleValue
43.789

@<SCITEGIC>MOL_PROPERTY
VdW
SciTegic.value.DoubleValue
0.224

@<SCITEGIC>MOL_PROPERTY
VdW6
SciTegic.value.DoubleValue
-2.897

@<SCITEGIC>MOL_PROPERTY
VdW12
SciTegic.value.DoubleValue
3.121

@<SCITEGIC>MOL_PROPERTY
Bond
SciTegic.value.DoubleValue
0.100

@<SCITEGIC>MOL_PROPERTY
Angle
SciTegic.value.DoubleValue
0.500

@<SCITEGIC>MOL_PROPERTY
Pdih
SciTegic.value.DoubleValue
0.561

@<SCITEGIC>MOL_PROPERTY
Idih
SciTegic.value.DoubleValue
0.000

@<SCITEGIC>MOL_PROPERTY
Tether
SciTegic.value.DoubleValue
0.000

@<TRIPOS>MOLECULE
guest-1_confgen4.mol2 : confsearch ligand conformer 9
          17          16           1
SMALL
USER_CHARGES
 
@<TRIPOS>ATOM
       1    N1      21.265607   18.163516   22.608945 N.4        1 MOL1        -0.5891
       2    H1      20.410245   18.291997   23.155474 H          1 MOL1         0.3726
       3    H2      21.914030   18.907068   22.884909 H          1 MOL1         0.3726
       4    H3      21.685194   17.277214   22.907674 H          1 MOL1         0.3726
       5    C1      20.988357   18.182255   21.118036 C.3        1 MOL1         0.0314
       6    H4      20.348878   17.330254   20.872144 H          1 MOL1         0.0999
       7    H5      21.947665   18.041588   20.612586 H          1 MOL1         0.0999
       8    C2      20.338854   19.486674   20.609852 C.3        1 MOL1        -0.1308
       9    H6      20.836876   20.354914   21.061363 H          1 MOL1         0.1025
      10    H7      20.529725   19.557498   19.530779 H          1 MOL1         0.1025
      11    C3      18.806629   19.569626   20.829195 C.3        1 MOL1        -0.1243
      12    H8      18.314252   18.729737   20.319125 H          1 MOL1         0.1025
      13    H9      18.435949   20.481442   20.340138 H          1 MOL1         0.1025
      14    C4      18.373965   19.596263   22.312763 C.3        1 MOL1        -0.2258
      15    H10     18.533691   18.625341   22.795956 H          1 MOL1         0.1036
      16    H11     17.302944   19.823582   22.392737 H          1 MOL1         0.1036
      17    H12     18.920340   20.365747   22.873585 H          1 MOL1         0.1036
@<TRIPOS>BOND
    1     1     2    1
    2     1     3    1
    3     1     4    1
    4     1     5    1
    5     5     6    1
    6     5     7    1
    7     5     8    1
    8     8     9    1
    9     8    10    1
   10     8    11    1
   11    11    12    1
   12    11    13    1
   13    11    14    1
   14    14    15    1
   15    14    16    1
   16    14    17    1
@<TRIPOS>SUBSTRUCTURE
       1 MOL1            1 RESIDUE      1      MOL     
@<SCITEGIC>MOL_PROPERTY
VConf Rank
SciTegic.value.IntegerValue
9

@<SCITEGIC>MOL_PROPERTY
Conf_Id
SciTegic.value.IntegerValue
19

@<SCITEGIC>MOL_PROPERTY
Delta U+W
SciTegic.value.DoubleValue
2.662

@<SCITEGIC>MOL_PROPERTY
U+W
SciTegic.value.DoubleValue
-13.203

@<SCITEGIC>MOL_PROPERTY
Grad RMS
SciTegic.value.DoubleValue
0.000000

@<SCITEGIC>MOL_PROPERTY
U
SciTegic.value.DoubleValue
47.423

@<SCITEGIC>MOL_PROPERTY
W
SciTegic.value.DoubleValue
-60.626

@<SCITEGIC>MOL_PROPERTY
W(PB)
SciTegic.value.DoubleValue
-62.328

@<SCITEGIC>MOL_PROPERTY
W(SA)
SciTegic.value.DoubleValue
1.702

@<SCITEGIC>MOL_PROPERTY
Valence
SciTegic.value.DoubleValue
2.414

@<SCITEGIC>MOL_PROPERTY
Coulomb
SciTegic.value.DoubleValue
44.831

@<SCITEGIC>MOL_PROPERTY
VdW
SciTegic.value.DoubleValue
0.178

@<SCITEGIC>MOL_PROPERTY
VdW6
SciTegic.value.DoubleValue
-3.743

@<SCITEGIC>MOL_PROPERTY
VdW12
SciTegic.value.DoubleValue
3.921

@<SCITEGIC>MOL_PROPERTY
Bond
SciTegic.value.DoubleValue
0.138

@<SCITEGIC>MOL_PROPERTY
Angle
SciTegic.value.DoubleValue
0.941

@<SCITEGIC>MOL_PROPERTY
Pdih
SciTegic.value.DoubleValue
1.335

@<SCITEGIC>MOL_PROPERTY
Idih
SciTegic.value.DoubleValue
0.000

@<SCITEGIC>MOL_PROPERTY
Tether
SciTegic.value.DoubleValue
0.000

@<TRIPOS>MOLECULE
guest-1_confgen4.mol2 : confsearch ligand conformer 10
          17          16           1
SMALL
USER_CHARGES
 
@<TRIPOS>ATOM
       1    N1      21.400296   18.637776   20.617632 N.4        1 MOL1        -0.5891
       2    H1      21.932951   18.798033   19.756575 H          1 MOL1         0.3726
       3    H2      21.815126   17.820804   21.075838 H          1 MOL1         0.3726
       4    H3      21.565254   19.441627   21.228743 H          1 MOL1         0.3726
       5    C1      19.923155   18.437658   20.338260 C.3        1 MOL1         0.0314
       6    H4      19.836545   17.564794   19.685463 H          1 MOL1         0.0999
       7    H5      19.551569   19.307586   19.790126 H          1 MOL1         0.0999
       8    C2      19.064147   18.209188   21.599814 C.3        1 MOL1        -0.1308
       9    H6      18.136457   17.711409   21.287640 H          1 MOL1         0.1025
      10    H7      19.569562   17.507296   22.276300 H          1 MOL1         0.1025
      11    C3      18.677869   19.504979   22.357718 C.3        1 MOL1        -0.1243
      12    H8      17.986057   19.238142   23.169003 H          1 MOL1         0.1025
      13    H9      18.117378   20.171935   21.687613 H          1 MOL1         0.1025
      14    C4      19.875112   20.271659   22.964092 C.3        1 MOL1        -0.2258
      15    H10     20.510592   19.607897   23.564705 H          1 MOL1         0.1036
      16    H11     19.518686   21.075567   23.621244 H          1 MOL1         0.1036
      17    H12     20.488456   20.740497   22.185837 H          1 MOL1         0.1036
@<TRIPOS>BOND
    1     1     2    1
    2     1     3    1
    3     1     4    1
    4     1     5    1
    5     5     6    1
    6     5     7    1
    7     5     8    1
    8     8     9    1
    9     8    10    1
   10     8    11    1
   11    11    12    1
   12    11    13    1
   13    11    14    1
   14    14    15    1
   15    14    16    1
   16    14    17    1
@<TRIPOS>SUBSTRUCTURE
       1 MOL1            1 RESIDUE      1      MOL     
@<SCITEGIC>MOL_PROPERTY
VConf Rank
SciTegic.value.IntegerValue
10

@<SCITEGIC>MOL_PROPERTY
Conf_Id
SciTegic.value.IntegerValue
44

@<SCITEGIC>MOL_PROPERTY
Delta U+W
SciTegic.value.DoubleValue
2.712

@<SCITEGIC>MOL_PROPERTY
U+W
SciTegic.value.DoubleValue
-13.153

@<SCITEGIC>MOL_PROPERTY
Grad RMS
SciTegic.value.DoubleValue
0.000000

@<SCITEGIC>MOL_PROPERTY
U
SciTegic.value.DoubleValue
47.423

@<SCITEGIC>MOL_PROPERTY
W
SciTegic.value.DoubleValue
-60.576

@<SCITEGIC>MOL_PROPERTY
W(PB)
SciTegic.value.DoubleValue
-62.262

@<SCITEGIC>MOL_PROPERTY
W(SA)
SciTegic.value.DoubleValue
1.687

@<SCITEGIC>MOL_PROPERTY
Valence
SciTegic.value.DoubleValue
2.414

@<SCITEGIC>MOL_PROPERTY
Coulomb
SciTegic.value.DoubleValue
44.831

@<SCITEGIC>MOL_PROPERTY
VdW
SciTegic.value.DoubleValue
0.178

@<SCITEGIC>MOL_PROPERTY
VdW6
SciTegic.value.DoubleValue
-3.743

@<SCITEGIC>MOL_PROPERTY
VdW12
SciTegic.value.DoubleValue
3.922

@<SCITEGIC>MOL_PROPERTY
Bond
SciTegic.value.DoubleValue
0.138

@<SCITEGIC>MOL_PROPERTY
Angle
SciTegic.value.DoubleValue
0.941

@<SCITEGIC>MOL_PROPERTY
Pdih
SciTegic.value.DoubleValue
1.335

@<SCITEGIC>MOL_PROPERTY
Idih
SciTegic.value.DoubleValue
0.000

@<SCITEGIC>MOL_PROPERTY
Tether
SciTegic.value.DoubleValue
0.000

@<TRIPOS>MOLECULE
guest-1_confgen4.mol2 : confsearch ligand conformer 11
          17          16           1
SMALL
USER_CHARGES
 
@<TRIPOS>ATOM
       1    N1      20.926094   17.327215   21.557966 N.4        1 MOL1        -0.5891
       2    H1      21.506499   18.029378   21.090478 H          1 MOL1         0.3726
       3    H2      20.568971   16.697970   20.832781 H          1 MOL1         0.3726
       4    H3      21.549198   16.772113   22.153173 H          1 MOL1         0.3726
       5    C1      19.805125   17.965456   22.355421 C.3        1 MOL1         0.0314
       6    H4      20.253958   18.597250   23.126258 H          1 MOL1         0.0999
       7    H5      19.253399   17.164116   22.854412 H          1 MOL1         0.0999
       8    C2      18.830188   18.801145   21.500412 C.3        1 MOL1        -0.1308
       9    H6      18.354293   18.149395   20.755767 H          1 MOL1         0.1025
      10    H7      18.021775   19.167772   22.146832 H          1 MOL1         0.1025
      11    C3      19.493118   20.003186   20.782654 C.3        1 MOL1        -0.1243
      12    H8      18.729430   20.526675   20.190501 H          1 MOL1         0.1025
      13    H9      20.242697   19.646744   20.063116 H          1 MOL1         0.1025
      14    C4      20.145956   21.007153   21.760229 C.3        1 MOL1        -0.2258
      15    H10     19.415229   21.379276   22.490043 H          1 MOL1         0.1036
      16    H11     20.544236   21.872360   21.214556 H          1 MOL1         0.1036
      17    H12     20.978475   20.551558   22.310950 H          1 MOL1         0.1036
@<TRIPOS>BOND
    1     1     2    1
    2     1     3    1
    3     1     4    1
    4     1     5    1
    5     5     6    1
    6     5     7    1
    7     5     8    1
    8     8     9    1
    9     8    10    1
   10     8    11    1
   11    11    12    1
   12    11    13    1
   13    11    14    1
   14    14    15    1
   15    14    16    1
   16    14    17    1
@<TRIPOS>SUBSTRUCTURE
       1 MOL1            1 RESIDUE      1      MOL     
@<SCITEGIC>MOL_PROPERTY
VConf Rank
SciTegic.value.IntegerValue
11

@<SCITEGIC>MOL_PROPERTY
Conf_Id
SciTegic.value.IntegerValue
1

@<SCITEGIC>MOL_PROPERTY
Delta U+W
SciTegic.value.DoubleValue
0.685

@<SCITEGIC>MOL_PROPERTY
U+W
SciTegic.value.DoubleValue
-15.179

@<SCITEGIC>MOL_PROPERTY
Grad RMS
SciTegic.value.DoubleValue
0.000000

@<SCITEGIC>MOL_PROPERTY
U
SciTegic.value.DoubleValue
45.697

@<SCITEGIC>MOL_PROPERTY
W
SciTegic.value.DoubleValue
-60.876

@<SCITEGIC>MOL_PROPERTY
W(PB)
SciTegic.value.DoubleValue
-62.586

@<SCITEGIC>MOL_PROPERTY
W(SA)
SciTegic.value.DoubleValue
1.710

@<SCITEGIC>MOL_PROPERTY
Valence
SciTegic.value.DoubleValue
1.263

@<SCITEGIC>MOL_PROPERTY
Coulomb
SciTegic.value.DoubleValue
44.179

@<SCITEGIC>MOL_PROPERTY
VdW
SciTegic.value.DoubleValue
0.255

@<SCITEGIC>MOL_PROPERTY
VdW6
SciTegic.value.DoubleValue
-3.552

@<SCITEGIC>MOL_PROPERTY
VdW12
SciTegic.value.DoubleValue
3.807

@<SCITEGIC>MOL_PROPERTY
Bond
SciTegic.value.DoubleValue
0.125

@<SCITEGIC>MOL_PROPERTY
Angle
SciTegic.value.DoubleValue
0.616

@<SCITEGIC>MOL_PROPERTY
Pdih
SciTegic.value.DoubleValue
0.521

@<SCITEGIC>MOL_PROPERTY
Idih
SciTegic.value.DoubleValue
0.000

@<SCITEGIC>MOL_PROPERTY
Tether
SciTegic.value.DoubleValue
0.000

@<TRIPOS>MOLECULE
guest-1_confgen4.mol2 : confsearch ligand conformer 12
          17          16           1
SMALL
USER_CHARGES
 
@<TRIPOS>ATOM
       1    N1      18.095954   18.440047   21.099545 N.4        1 MOL1        -0.5891
       2    H1      17.535601   19.217885   20.738505 H          1 MOL1         0.3726
       3    H2      18.115535   18.528884   22.119434 H          1 MOL1         0.3726
       4    H3      17.583503   17.578885   20.883996 H          1 MOL1         0.3726
       5    C1      19.493045   18.427625   20.509765 C.3        1 MOL1         0.0314
       6    H4      19.397009   18.293010   19.428935 H          1 MOL1         0.0999
       7    H5      20.023723   17.560897   20.912218 H          1 MOL1         0.0999
       8    C2      20.300787   19.710669   20.794851 C.3        1 MOL1        -0.1308
       9    H6      21.267376   19.639144   20.278719 H          1 MOL1         0.1025
      10    H7      19.780491   20.570049   20.351560 H          1 MOL1         0.1025
      11    C3      20.546152   19.979138   22.300600 C.3        1 MOL1        -0.1243
      12    H8      19.589961   20.144582   22.815363 H          1 MOL1         0.1025
      13    H9      21.112694   20.915067   22.405348 H          1 MOL1         0.1025
      14    C4      21.323678   18.840568   22.999820 C.3        1 MOL1        -0.2258
      15    H10     21.531488   19.101897   24.045521 H          1 MOL1         0.1036
      16    H11     22.285355   18.656674   22.503406 H          1 MOL1         0.1036
      17    H12     20.753634   17.903019   23.000155 H          1 MOL1         0.1036
@<TRIPOS>BOND
    1     1     2    1
    2     1     3    1
    3     1     4    1
    4     1     5    1
    5     5     6    1
    6     5     7    1
    7     5     8    1
    8     8     9    1
    9     8    10    1
   10     8    11    1
   11    11    12    1
   12    11    13    1
   13    11    14    1
   14    14    15    1
   15    14    16    1
   16    14    17    1
@<TRIPOS>SUBSTRUCTURE
       1 MOL1            1 RESIDUE      1      MOL     
@<SCITEGIC>MOL_PROPERTY
VConf Rank
SciTegic.value.IntegerValue
12

@<SCITEGIC>MOL_PROPERTY
Conf_Id
SciTegic.value.IntegerValue
43

@<SCITEGIC>MOL_PROPERTY
Delta U+W
SciTegic.value.DoubleValue
0.642

@<SCITEGIC>MOL_PROPERTY
U+W
SciTegic.value.DoubleValue
-15.222

@<SCITEGIC>MOL_PROPERTY
Grad RMS
SciTegic.value.DoubleValue
0.000000

@<SCITEGIC>MOL_PROPERTY
U
SciTegic.value.DoubleValue
45.697

@<SCITEGIC>MOL_PROPERTY
W
SciTegic.value.DoubleValue
-60.919

@<SCITEGIC>MOL_PROPERTY
W(PB)
SciTegic.value.DoubleValue
-62.631

@<SCITEGIC>MOL_PROPERTY
W(SA)
SciTegic.value.DoubleValue
1.712

@<SCITEGIC>MOL_PROPERTY
Valence
SciTegic.value.DoubleValue
1.262

@<SCITEGIC>MOL_PROPERTY
Coulomb
SciTegic.value.DoubleValue
44.179

@<SCITEGIC>MOL_PROPERTY
VdW
SciTegic.value.DoubleValue
0.255

@<SCITEGIC>MOL_PROPERTY
VdW6
SciTegic.value.DoubleValue
-3.552

@<SCITEGIC>MOL_PROPERTY
VdW12
SciTegic.value.DoubleValue
3.807

@<SCITEGIC>MOL_PROPERTY
Bond
SciTegic.value.DoubleValue
0.125

@<SCITEGIC>MOL_PROPERTY
Angle
SciTegic.value.DoubleValue
0.616

@<SCITEGIC>MOL_PROPERTY
Pdih
SciTegic.value.DoubleValue
0.521

@<SCITEGIC>MOL_PROPERTY
Idih
SciTegic.value.DoubleValue
0.000

@<SCITEGIC>MOL_PROPERTY
Tether
SciTegic.value.DoubleValue
0.000

@<TRIPOS>MOLECULE
guest-1_confgen4.mol2 : confsearch ligand conformer 13
          17          16           1
SMALL
USER_CHARGES
 
@<TRIPOS>ATOM
       1    N1      21.444677   20.844927   20.511298 N.4        1 MOL1        -0.5891
       2    H1      21.182977   20.658935   19.538356 H          1 MOL1         0.3726
       3    H2      22.345112   20.383968   20.673876 H          1 MOL1         0.3726
       4    H3      21.610660   21.853797   20.585721 H          1 MOL1         0.3726
       5    C1      20.382219   20.375264   21.484928 C.3        1 MOL1         0.0314
       6    H4      19.462844   20.928215   21.273936 H          1 MOL1         0.0999
       7    H5      20.712494   20.632577   22.494994 H          1 MOL1         0.0999
       8    C2      20.107421   18.862806   21.399974 C.3        1 MOL1        -0.1308
       9    H6      19.790922   18.605724   20.380303 H          1 MOL1         0.1025
      10    H7      21.036226   18.311107   21.597303 H          1 MOL1         0.1025
      11    C3      19.020347   18.426706   22.406755 C.3        1 MOL1        -0.1243
      12    H8      18.091342   18.981038   22.211841 H          1 MOL1         0.1025
      13    H9      19.335148   18.686708   23.427355 H          1 MOL1         0.1025
      14    C4      18.739273   16.910582   22.327242 C.3        1 MOL1        -0.2258
      15    H10     17.964901   16.621278   23.049530 H          1 MOL1         0.1036
      16    H11     19.642707   16.328682   22.551753 H          1 MOL1         0.1036
      17    H12     18.389139   16.625333   21.326619 H          1 MOL1         0.1036
@<TRIPOS>BOND
    1     1     2    1
    2     1     3    1
    3     1     4    1
    4     1     5    1
    5     5     6    1
    6     5     7    1
    7     5     8    1
    8     8     9    1
    9     8    10    1
   10     8    11    1
   11    11    12    1
   12    11    13    1
   13    11    14    1
   14    14    15    1
   15    14    16    1
   16    14    17    1
@<TRIPOS>SUBSTRUCTURE
       1 MOL1            1 RESIDUE      1      MOL     
@<SCITEGIC>MOL_PROPERTY
VConf Rank
SciTegic.value.IntegerValue
13

@<SCITEGIC>MOL_PROPERTY
Conf_Id
SciTegic.value.IntegerValue
7

@<SCITEGIC>MOL_PROPERTY
Delta U+W
SciTegic.value.DoubleValue
0.000

@<SCITEGIC>MOL_PROPERTY
U+W
SciTegic.value.DoubleValue
-15.865

@<SCITEGIC>MOL_PROPERTY
Grad RMS
SciTegic.value.DoubleValue
0.000000

@<SCITEGIC>MOL_PROPERTY
U
SciTegic.value.DoubleValue
44.664

@<SCITEGIC>MOL_PROPERTY
W
SciTegic.value.DoubleValue
-60.529

@<SCITEGIC>MOL_PROPERTY
W(PB)
SciTegic.value.DoubleValue
-62.309

@<SCITEGIC>MOL_PROPERTY
W(SA)
SciTegic.value.DoubleValue
1.780

@<SCITEGIC>MOL_PROPERTY
Valence
SciTegic.value.DoubleValue
0.872

@<SCITEGIC>MOL_PROPERTY
Coulomb
SciTegic.value.DoubleValue
43.648

@<SCITEGIC>MOL_PROPERTY
VdW
SciTegic.value.DoubleValue
0.144

@<SCITEGIC>MOL_PROPERTY
VdW6
SciTegic.value.DoubleValue
-2.370

@<SCITEGIC>MOL_PROPERTY
VdW12
SciTegic.value.DoubleValue
2.515

@<SCITEGIC>MOL_PROPERTY
Bond
SciTegic.value.DoubleValue
0.080

@<SCITEGIC>MOL_PROPERTY
Angle
SciTegic.value.DoubleValue
0.376

@<SCITEGIC>MOL_PROPERTY
Pdih
SciTegic.value.DoubleValue
0.416

@<SCITEGIC>MOL_PROPERTY
Idih
SciTegic.value.DoubleValue
0.000

@<SCITEGIC>MOL_PROPERTY
Tether
SciTegic.value.DoubleValue
0.000

@<TRIPOS>MOLECULE
guest-1_confgen4.mol2 : confsearch ligand conformer 14
          17          16           1
SMALL
USER_CHARGES
 
@<TRIPOS>ATOM
       1    N1      21.976010   18.892446   20.357707 N.4        1 MOL1        -0.5891
       2    H1      22.265076   17.909548   20.357083 H          1 MOL1         0.3726
       3    H2      22.592335   19.386707   21.010008 H          1 MOL1         0.3726
       4    H3      22.177407   19.261029   19.422598 H          1 MOL1         0.3726
       5    C1      20.514321   19.054218   20.724658 C.3        1 MOL1         0.0314
       6    H4      19.917317   18.529861   19.973630 H          1 MOL1         0.0999
       7    H5      20.271177   20.118714   20.673986 H          1 MOL1         0.0999
       8    C2      20.176767   18.510132   22.126081 C.3        1 MOL1        -0.1308
       9    H6      20.461729   17.450951   22.179079 H          1 MOL1         0.1025
      10    H7      20.777611   19.035631   22.880220 H          1 MOL1         0.1025
      11    C3      18.675587   18.645337   22.472756 C.3        1 MOL1        -0.1243
      12    H8      18.489511   18.168504   23.445375 H          1 MOL1         0.1025
      13    H9      18.074421   18.091946   21.737542 H          1 MOL1         0.1025
      14    C4      18.199183   20.114840   22.532404 C.3        1 MOL1        -0.2258
      15    H10     18.788651   20.692197   23.256497 H          1 MOL1         0.1036
      16    H11     17.146904   20.166103   22.840770 H          1 MOL1         0.1036
      17    H12     18.281374   20.605609   21.554405 H          1 MOL1         0.1036
@<TRIPOS>BOND
    1     1     2    1
    2     1     3    1
    3     1     4    1
    4     1     5    1
    5     5     6    1
    6     5     7    1
    7     5     8    1
    8     8     9    1
    9     8    10    1
   10     8    11    1
   11    11    12    1
   12    11    13    1
   13    11    14    1
   14    14    15    1
   15    14    16    1
   16    14    17    1
@<TRIPOS>SUBSTRUCTURE
       1 MOL1            1 RESIDUE      1      MOL     
@<SCITEGIC>MOL_PROPERTY
VConf Rank
SciTegic.value.IntegerValue
14

@<SCITEGIC>MOL_PROPERTY
Conf_Id
SciTegic.value.IntegerValue
36

@<SCITEGIC>MOL_PROPERTY
Delta U+W
SciTegic.value.DoubleValue
0.275

@<SCITEGIC>MOL_PROPERTY
U+W
SciTegic.value.DoubleValue
-15.590

@<SCITEGIC>MOL_PROPERTY
Grad RMS
SciTegic.value.DoubleValue
0.000000

@<SCITEGIC>MOL_PROPERTY
U
SciTegic.value.DoubleValue
45.174

@<SCITEGIC>MOL_PROPERTY
W
SciTegic.value.DoubleValue
-60.765

@<SCITEGIC>MOL_PROPERTY
W(PB)
SciTegic.value.DoubleValue
-62.518

@<SCITEGIC>MOL_PROPERTY
W(SA)
SciTegic.value.DoubleValue
1.754

@<SCITEGIC>MOL_PROPERTY
Valence
SciTegic.value.DoubleValue
1.161

@<SCITEGIC>MOL_PROPERTY
Coulomb
SciTegic.value.DoubleValue
43.789

@<SCITEGIC>MOL_PROPERTY
VdW
SciTegic.value.DoubleValue
0.224

@<SCITEGIC>MOL_PROPERTY
VdW6
SciTegic.value.DoubleValue
-2.897

@<SCITEGIC>MOL_PROPERTY
VdW12
SciTegic.value.DoubleValue
3.121

@<SCITEGIC>MOL_PROPERTY
Bond
SciTegic.value.DoubleValue
0.100

@<SCITEGIC>MOL_PROPERTY
Angle
SciTegic.value.DoubleValue
0.500

@<SCITEGIC>MOL_PROPERTY
Pdih
SciTegic.value.DoubleValue
0.561

@<SCITEGIC>MOL_PROPERTY
Idih
SciTegic.value.DoubleValue
0.000

@<SCITEGIC>MOL_PROPERTY
Tether
SciTegic.value.DoubleValue
0.000

@<TRIPOS>MOLECULE
guest-1_confgen4.mol2 : confsearch ligand conformer 15
          17          16           1
SMALL
USER_CHARGES
 
@<TRIPOS>ATOM
       1    N1      20.694104   18.733832   19.922274 N.4        1 MOL1        -0.5891
       2    H1      20.702290   19.721848   20.187983 H          1 MOL1         0.3726
       3    H2      19.910152   18.602083   19.276100 H          1 MOL1         0.3726
       4    H3      21.551633   18.556816   19.389233 H          1 MOL1         0.3726
       5    C1      20.585022   17.826913   21.132906 C.3        1 MOL1         0.0314
       6    H4      21.477913   17.960500   21.749511 H          1 MOL1         0.0999
       7    H5      20.581108   16.798169   20.762489 H          1 MOL1         0.0999
       8    C2      19.320845   18.058453   21.987224 C.3        1 MOL1        -0.1308
       9    H6      18.443559   18.172171   21.336712 H          1 MOL1         0.1025
      10    H7      19.143283   17.148664   22.575954 H          1 MOL1         0.1025
      11    C3      19.420159   19.251434   22.971926 C.3        1 MOL1        -0.1243
      12    H8      20.264027   19.094709   23.658473 H          1 MOL1         0.1025
      13    H9      18.516777   19.259537   23.597885 H          1 MOL1         0.1025
      14    C4      19.559592   20.632031   22.291199 C.3        1 MOL1        -0.2258
      15    H10     20.543633   20.752428   21.823390 H          1 MOL1         0.1036
      16    H11     19.455290   21.434377   23.033168 H          1 MOL1         0.1036
      17    H12     18.783812   20.780753   21.528834 H          1 MOL1         0.1036
@<TRIPOS>BOND
    1     1     2    1
    2     1     3    1
    3     1     4    1
    4     1     5    1
    5     5     6    1
    6     5     7    1
    7     5     8    1
    8     8     9    1
    9     8    10    1
   10     8    11    1
   11    11    12    1
   12    11    13    1
   13    11    14    1
   14    14    15    1
   15    14    16    1
   16    14    17    1
@<TRIPOS>SUBSTRUCTURE
       1 MOL1            1 RESIDUE      1      MOL     
@<SCITEGIC>MOL_PROPERTY
VConf Rank
SciTegic.value.IntegerValue
15

@<SCITEGIC>MOL_PROPERTY
Conf_Id
SciTegic.value.IntegerValue
19

@<SCITEGIC>MOL_PROPERTY
Delta U+W
SciTegic.value.DoubleValue
2.662

@<SCITEGIC>MOL_PROPERTY
U+W
SciTegic.value.DoubleValue
-13.203

@<SCITEGIC>MOL_PROPERTY
Grad RMS
SciTegic.value.DoubleValue
0.000000

@<SCITEGIC>MOL_PROPERTY
U
SciTegic.value.DoubleValue
47.423

@<SCITEGIC>MOL_PROPERTY
W
SciTegic.value.DoubleValue
-60.626

@<SCITEGIC>MOL_PROPERTY
W(PB)
SciTegic.value.DoubleValue
-62.328

@<SCITEGIC>MOL_PROPERTY
W(SA)
SciTegic.value.DoubleValue
1.702

@<SCITEGIC>MOL_PROPERTY
Valence
SciTegic.value.DoubleValue
2.414

@<SCITEGIC>MOL_PROPERTY
Coulomb
SciTegic.value.DoubleValue
44.831

@<SCITEGIC>MOL_PROPERTY
VdW
SciTegic.value.DoubleValue
0.178

@<SCITEGIC>MOL_PROPERTY
VdW6
SciTegic.value.DoubleValue
-3.743

@<SCITEGIC>MOL_PROPERTY
VdW12
SciTegic.value.DoubleValue
3.921

@<SCITEGIC>MOL_PROPERTY
Bond
SciTegic.value.DoubleValue
0.138

@<SCITEGIC>MOL_PROPERTY
Angle
SciTegic.value.DoubleValue
0.941

@<SCITEGIC>MOL_PROPERTY
Pdih
SciTegic.value.DoubleValue
1.335

@<SCITEGIC>MOL_PROPERTY
Idih
SciTegic.value.DoubleValue
0.000

@<SCITEGIC>MOL_PROPERTY
Tether
SciTegic.value.DoubleValue
0.000

@<TRIPOS>MOLECULE
guest-1_confgen4.mol2 : confsearch ligand conformer 16
          17          16           1
SMALL
USER_CHARGES
 
@<TRIPOS>ATOM
       1    N1      21.699125   19.439209   21.528120 N.4        1 MOL1        -0.5891
       2    H1      22.537603   19.706519   22.053784 H          1 MOL1         0.3726
       3    H2      21.930359   19.529301   20.534191 H          1 MOL1         0.3726
       4    H3      21.532836   18.446100   21.709577 H          1 MOL1         0.3726
       5    C1      20.501058   20.288326   21.907168 C.3        1 MOL1         0.0314
       6    H4      20.760362   21.326226   21.681202 H          1 MOL1         0.0999
       7    H5      20.343846   20.206645   22.986016 H          1 MOL1         0.0999
       8    C2      19.201342   19.920864   21.160628 C.3        1 MOL1        -0.1308
       9    H6      18.532048   20.790268   21.205667 H          1 MOL1         0.1025
      10    H7      19.413051   19.758693   20.095448 H          1 MOL1         0.1025
      11    C3      18.443006   18.704624   21.750873 C.3        1 MOL1        -0.1243
      12    H8      17.489475   18.598004   21.214774 H          1 MOL1         0.1025
      13    H9      18.181236   18.905608   22.799254 H          1 MOL1         0.1025
      14    C4      19.211357   17.366666   21.659305 C.3        1 MOL1        -0.2258
      15    H10     19.570273   17.182153   20.638381 H          1 MOL1         0.1036
      16    H11     18.555526   16.531450   21.937613 H          1 MOL1         0.1036
      17    H12     20.066710   17.346190   22.344602 H          1 MOL1         0.1036
@<TRIPOS>BOND
    1     1     2    1
    2     1     3    1
    3     1     4    1
    4     1     5    1
    5     5     6    1
    6     5     7    1
    7     5     8    1
    8     8     9    1
    9     8    10    1
   10     8    11    1
   11    11    12    1
   12    11    13    1
   13    11    14    1
   14    14    15    1
   15    14    16    1
   16    14    17    1
@<TRIPOS>SUBSTRUCTURE
       1 MOL1            1 RESIDUE      1      MOL     
@<SCITEGIC>MOL_PROPERTY
VConf Rank
SciTegic.value.IntegerValue
16

@<SCITEGIC>MOL_PROPERTY
Conf_Id
SciTegic.value.IntegerValue
44

@<SCITEGIC>MOL_PROPERTY
Delta U+W
SciTegic.value.DoubleValue
2.712

@<SCITEGIC>MOL_PROPERTY
U+W
SciTegic.value.DoubleValue
-13.153

@<SCITEGIC>MOL_PROPERTY
Grad RMS
SciTegic.value.DoubleValue
0.000000

@<SCITEGIC>MOL_PROPERTY
U
SciTegic.value.DoubleValue
47.423

@<SCITEGIC>MOL_PROPERTY
W
SciTegic.value.DoubleValue
-60.576

@<SCITEGIC>MOL_PROPERTY
W(PB)
SciTegic.value.DoubleValue
-62.262

@<SCITEGIC>MOL_PROPERTY
W(SA)
SciTegic.value.DoubleValue
1.687

@<SCITEGIC>MOL_PROPERTY
Valence
SciTegic.value.DoubleValue
2.414

@<SCITEGIC>MOL_PROPERTY
Coulomb
SciTegic.value.DoubleValue
44.831

@<SCITEGIC>MOL_PROPERTY
VdW
SciTegic.value.DoubleValue
0.178

@<SCITEGIC>MOL_PROPERTY
VdW6
SciTegic.value.DoubleValue
-3.743

@<SCITEGIC>MOL_PROPERTY
VdW12
SciTegic.value.DoubleValue
3.922

@<SCITEGIC>MOL_PROPERTY
Bond
SciTegic.value.DoubleValue
0.138

@<SCITEGIC>MOL_PROPERTY
Angle
SciTegic.value.DoubleValue
0.941

@<SCITEGIC>MOL_PROPERTY
Pdih
SciTegic.value.DoubleValue
1.335

@<SCITEGIC>MOL_PROPERTY
Idih
SciTegic.value.DoubleValue
0.000

@<SCITEGIC>MOL_PROPERTY
Tether
SciTegic.value.DoubleValue
0.000

@<TRIPOS>MOLECULE
guest-1_confgen4.mol2 : confsearch ligand conformer 17
          17          16           1
SMALL
USER_CHARGES
 
@<TRIPOS>ATOM
       1    N1      21.011166   17.386137   21.745042 N.4        1 MOL1        -0.5891
       2    H1      20.348575   17.242174   20.977779 H          1 MOL1         0.3726
       3    H2      20.702658   16.799059   22.525774 H          1 MOL1         0.3726
       4    H3      21.914833   17.016099   21.433391 H          1 MOL1         0.3726
       5    C1      21.105701   18.847557   22.138960 C.3        1 MOL1         0.0314
       6    H4      21.466607   19.409691   21.273768 H          1 MOL1         0.0999
       7    H5      21.853815   18.930920   22.932001 H          1 MOL1         0.0999
       8    C2      19.772015   19.447741   22.629857 C.3        1 MOL1        -0.1308
       9    H6      19.438536   18.902673   23.522854 H          1 MOL1         0.1025
      10    H7      19.949897   20.482339   22.951989 H          1 MOL1         0.1025
      11    C3      18.645012   19.431875   21.567233 C.3        1 MOL1        -0.1243
      12    H8      17.735780   19.862785   22.009408 H          1 MOL1         0.1025
      13    H9      18.391302   18.396704   21.301327 H          1 MOL1         0.1025
      14    C4      19.006125   20.223992   20.289757 C.3        1 MOL1        -0.2258
      15    H10     19.262978   21.263954   20.529701 H          1 MOL1         0.1036
      16    H11     18.156978   20.240974   19.594322 H          1 MOL1         0.1036
      17    H12     19.856665   19.774090   19.762387 H          1 MOL1         0.1036
@<TRIPOS>BOND
    1     1     2    1
    2     1     3    1
    3     1     4    1
    4     1     5    1
    5     5     6    1
    6     5     7    1
    7     5     8    1
    8     8     9    1
    9     8    10    1
   10     8    11    1
   11    11    12    1
   12    11    13    1
   13    11    14    1
   14    14    15    1
   15    14    16    1
   16    14    17    1
@<TRIPOS>SUBSTRUCTURE
       1 MOL1            1 RESIDUE      1      MOL     
@<SCITEGIC>MOL_PROPERTY
VConf Rank
SciTegic.value.IntegerValue
17

@<SCITEGIC>MOL_PROPERTY
Conf_Id
SciTegic.value.IntegerValue
1

@<SCITEGIC>MOL_PROPERTY
Delta U+W
SciTegic.value.DoubleValue
0.685

@<SCITEGIC>MOL_PROPERTY
U+W
SciTegic.value.DoubleValue
-15.179

@<SCITEGIC>MOL_PROPERTY
Grad RMS
SciTegic.value.DoubleValue
0.000000

@<SCITEGIC>MOL_PROPERTY
U
SciTegic.value.DoubleValue
45.697

@<SCITEGIC>MOL_PROPERTY
W
SciTegic.value.DoubleValue
-60.876

@<SCITEGIC>MOL_PROPERTY
W(PB)
SciTegic.value.DoubleValue
-62.586

@<SCITEGIC>MOL_PROPERTY
W(SA)
SciTegic.value.DoubleValue
1.710

@<SCITEGIC>MOL_PROPERTY
Valence
SciTegic.value.DoubleValue
1.263

@<SCITEGIC>MOL_PROPERTY
Coulomb
SciTegic.value.DoubleValue
44.179

@<SCITEGIC>MOL_PROPERTY
VdW
SciTegic.value.DoubleValue
0.255

@<SCITEGIC>MOL_PROPERTY
VdW6
SciTegic.value.DoubleValue
-3.552

@<SCITEGIC>MOL_PROPERTY
VdW12
SciTegic.value.DoubleValue
3.807

@<SCITEGIC>MOL_PROPERTY
Bond
SciTegic.value.DoubleValue
0.125

@<SCITEGIC>MOL_PROPERTY
Angle
SciTegic.value.DoubleValue
0.616

@<SCITEGIC>MOL_PROPERTY
Pdih
SciTegic.value.DoubleValue
0.521

@<SCITEGIC>MOL_PROPERTY
Idih
SciTegic.value.DoubleValue
0.000

@<SCITEGIC>MOL_PROPERTY
Tether
SciTegic.value.DoubleValue
0.000

@<TRIPOS>MOLECULE
guest-1_confgen4.mol2 : confsearch ligand conformer 18
          17          16           1
SMALL
USER_CHARGES
 
@<TRIPOS>ATOM
       1    N1      21.152090   18.575445   23.094181 N.4        1 MOL1        -0.5891
       2    H1      20.723404   18.768711   24.004266 H          1 MOL1         0.3726
       3    H2      21.464606   19.471785   22.710311 H          1 MOL1         0.3726
       4    H3      21.992917   18.017388   23.273765 H          1 MOL1         0.3726
       5    C1      20.194034   17.866187   22.156663 C.3        1 MOL1         0.0314
       6    H4      19.933423   16.906217   22.610620 H          1 MOL1         0.0999
       7    H5      20.721531   17.665035   21.220666 H          1 MOL1         0.0999
       8    C2      18.904003   18.660854   21.866415 C.3        1 MOL1        -0.1308
       9    H6      18.247406   18.046576   21.236061 H          1 MOL1         0.1025
      10    H7      18.360929   18.822436   22.807006 H          1 MOL1         0.1025
      11    C3      19.146629   20.024221   21.172210 C.3        1 MOL1        -0.1243
      12    H8      19.726165   20.685402   21.830718 H          1 MOL1         0.1025
      13    H9      18.178167   20.521047   21.020062 H          1 MOL1         0.1025
      14    C4      19.862103   19.890432   19.808394 C.3        1 MOL1        -0.2258
      15    H10     19.954112   20.871189   19.324020 H          1 MOL1         0.1036
      16    H11     19.300623   19.234016   19.130953 H          1 MOL1         0.1036
      17    H12     20.873843   19.481098   19.921431 H          1 MOL1         0.1036
@<TRIPOS>BOND
    1     1     2    1
    2     1     3    1
    3     1     4    1
    4     1     5    1
    5     5     6    1
    6     5     7    1
    7     5     8    1
    8     8     9    1
    9     8    10    1
   10     8    11    1
   11    11    12    1
   12    11    13    1
   13    11    14    1
   14    14    15    1
   15    14    16    1
   16    14    17    1
@<TRIPOS>SUBSTRUCTURE
       1 MOL1            1 RESIDUE      1      MOL     
@<SCITEGIC>MOL_PROPERTY
VConf Rank
SciTegic.value.IntegerValue
18

@<SCITEGIC>MOL_PROPERTY
Conf_Id
SciTegic.value.IntegerValue
43

@<SCITEGIC>MOL_PROPERTY
Delta U+W
SciTegic.value.DoubleValue
0.642

@<SCITEGIC>MOL_PROPERTY
U+W
SciTegic.value.DoubleValue
-15.222

@<SCITEGIC>MOL_PROPERTY
Grad RMS
SciTegic.value.DoubleValue
0.000000

@<SCITEGIC>MOL_PROPERTY
U
SciTegic.value.DoubleValue
45.697

@<SCITEGIC>MOL_PROPERTY
W
SciTegic.value.DoubleValue
-60.919

@<SCITEGIC>MOL_PROPERTY
W(PB)
SciTegic.value.DoubleValue
-62.631

@<SCITEGIC>MOL_PROPERTY
W(SA)
SciTegic.value.DoubleValue
1.712

@<SCITEGIC>MOL_PROPERTY
Valence
SciTegic.value.DoubleValue
1.262

@<SCITEGIC>MOL_PROPERTY
Coulomb
SciTegic.value.DoubleValue
44.179

@<SCITEGIC>MOL_PROPERTY
VdW
SciTegic.value.DoubleValue
0.255

@<SCITEGIC>MOL_PROPERTY
VdW6
SciTegic.value.DoubleValue
-3.552

@<SCITEGIC>MOL_PROPERTY
VdW12
SciTegic.value.DoubleValue
3.807

@<SCITEGIC>MOL_PROPERTY
Bond
SciTegic.value.DoubleValue
0.125

@<SCITEGIC>MOL_PROPERTY
Angle
SciTegic.value.DoubleValue
0.616

@<SCITEGIC>MOL_PROPERTY
Pdih
SciTegic.value.DoubleValue
0.521

@<SCITEGIC>MOL_PROPERTY
Idih
SciTegic.value.DoubleValue
0.000

@<SCITEGIC>MOL_PROPERTY
Tether
SciTegic.value.DoubleValue
0.000

@<TRIPOS>MOLECULE
guest-1_confgen4.mol2 : confsearch ligand conformer 19
          17          16           1
SMALL
USER_CHARGES
 
@<TRIPOS>ATOM
       1    N1      21.320542   17.096555   20.670907 N.4        1 MOL1        -0.5891
       2    H1      20.550917   16.424436   20.595882 H          1 MOL1         0.3726
       3    H2      21.833108   16.872209   21.529185 H          1 MOL1         0.3726
       4    H3      21.955753   16.908048   19.888679 H          1 MOL1         0.3726
       5    C1      20.826149   18.529338   20.662705 C.3        1 MOL1         0.0314
       6    H4      20.318989   18.706001   19.710286 H          1 MOL1         0.0999
       7    H5      21.697767   19.187510   20.713845 H          1 MOL1         0.0999
       8    C2      19.868654   18.847426   21.825582 C.3        1 MOL1        -0.1308
       9    H6      19.002201   18.174249   21.779945 H          1 MOL1         0.1025
      10    H7      20.376277   18.654245   22.780041 H          1 MOL1         0.1025
      11    C3      19.389229   20.314938   21.779949 C.3        1 MOL1        -0.1243
      12    H8      18.883935   20.509835   20.823383 H          1 MOL1         0.1025
      13    H9      20.256315   20.989247   21.822331 H          1 MOL1         0.1025
      14    C4      18.428235   20.641375   22.943513 C.3        1 MOL1        -0.2258
      15    H10     18.099424   21.687507   22.893119 H          1 MOL1         0.1036
      16    H11     18.917049   20.488986   23.914618 H          1 MOL1         0.1036
      17    H12     17.533863   20.005740   22.907811 H          1 MOL1         0.1036
@<TRIPOS>BOND
    1     1     2    1
    2     1     3    1
    3     1     4    1
    4     1     5    1
    5     5     6    1
    6     5     7    1
    7     5     8    1
    8     8     9    1
    9     8    10    1
   10     8    11    1
   11    11    12    1
   12    11    13    1
   13    11    14    1
   14    14    15    1
   15    14    16    1
   16    14    17    1
@<TRIPOS>SUBSTRUCTURE
       1 MOL1            1 RESIDUE      1      MOL     
@<SCITEGIC>MOL_PROPERTY
VConf Rank
SciTegic.value.IntegerValue
19

@<SCITEGIC>MOL_PROPERTY
Conf_Id
SciTegic.value.IntegerValue
7

@<SCITEGIC>MOL_PROPERTY
Delta U+W
SciTegic.value.DoubleValue
0.000

@<SCITEGIC>MOL_PROPERTY
U+W
SciTegic.value.DoubleValue
-15.865

@<SCITEGIC>MOL_PROPERTY
Grad RMS
SciTegic.value.DoubleValue
0.000000

@<SCITEGIC>MOL_PROPERTY
U
SciTegic.value.DoubleValue
44.664

@<SCITEGIC>MOL_PROPERTY
W
SciTegic.value.DoubleValue
-60.529

@<SCITEGIC>MOL_PROPERTY
W(PB)
SciTegic.value.DoubleValue
-62.309

@<SCITEGIC>MOL_PROPERTY
W(SA)
SciTegic.value.DoubleValue
1.780

@<SCITEGIC>MOL_PROPERTY
Valence
SciTegic.value.DoubleValue
0.872

@<SCITEGIC>MOL_PROPERTY
Coulomb
SciTegic.value.DoubleValue
43.648

@<SCITEGIC>MOL_PROPERTY
VdW
SciTegic.value.DoubleValue
0.144

@<SCITEGIC>MOL_PROPERTY
VdW6
SciTegic.value.DoubleValue
-2.370

@<SCITEGIC>MOL_PROPERTY
VdW12
SciTegic.value.DoubleValue
2.515

@<SCITEGIC>MOL_PROPERTY
Bond
SciTegic.value.DoubleValue
0.080

@<SCITEGIC>MOL_PROPERTY
Angle
SciTegic.value.DoubleValue
0.376

@<SCITEGIC>MOL_PROPERTY
Pdih
SciTegic.value.DoubleValue
0.416

@<SCITEGIC>MOL_PROPERTY
Idih
SciTegic.value.DoubleValue
0.000

@<SCITEGIC>MOL_PROPERTY
Tether
SciTegic.value.DoubleValue
0.000

@<TRIPOS>MOLECULE
guest-1_confgen4.mol2 : confsearch ligand conformer 20
          17          16           1
SMALL
USER_CHARGES
 
@<TRIPOS>ATOM
       1    N1      17.699600   18.379527   22.208453 N.4        1 MOL1        -0.5891
       2    H1      17.675876   17.355329   22.218691 H          1 MOL1         0.3726
       3    H2      17.224819   18.682749   21.352715 H          1 MOL1         0.3726
       4    H3      17.124102   18.697028   22.995116 H          1 MOL1         0.3726
       5    C1      19.114824   18.915606   22.292808 C.3        1 MOL1         0.0314
       6    H4      19.547530   18.579867   23.239092 H          1 MOL1         0.0999
       7    H5      19.060045   20.007200   22.308903 H          1 MOL1         0.0999
       8    C2      20.007944   18.457214   21.123974 C.3        1 MOL1        -0.1308
       9    H6      20.023927   17.359662   21.092331 H          1 MOL1         0.1025
      10    H7      19.572449   18.792988   20.173454 H          1 MOL1         0.1025
      11    C3      21.459267   18.978433   21.242278 C.3        1 MOL1        -0.1243
      12    H8      22.059351   18.551882   20.426229 H          1 MOL1         0.1025
      13    H9      21.907983   18.615538   22.177769 H          1 MOL1         0.1025
      14    C4      21.554083   20.520406   21.184944 C.3        1 MOL1        -0.2258
      15    H10     21.106612   20.909684   20.261170 H          1 MOL1         0.1036
      16    H11     22.603113   20.842738   21.210349 H          1 MOL1         0.1036
      17    H12     21.043857   20.987922   22.036525 H          1 MOL1         0.1036
@<TRIPOS>BOND
    1     1     2    1
    2     1     3    1
    3     1     4    1
    4     1     5    1
    5     5     6    1
    6     5     7    1
    7     5     8    1
    8     8     9    1
    9     8    10    1
   10     8    11    1
   11    11    12    1
   12    11    13    1
   13    11    14    1
   14    14    15    1
   15    14    16    1
   16    14    17    1
@<TRIPOS>SUBSTRUCTURE
       1 MOL1            1 RESIDUE      1      MOL     
@<SCITEGIC>MOL_PROPERTY
VConf Rank
SciTegic.value.IntegerValue
20

@<SCITEGIC>MOL_PROPERTY
Conf_Id
SciTegic.value.IntegerValue
36

@<SCITEGIC>MOL_PROPERTY
Delta U+W
SciTegic.value.DoubleValue
0.275

@<SCITEGIC>MOL_PROPERTY
U+W
SciTegic.value.DoubleValue
-15.590

@<SCITEGIC>MOL_PROPERTY
Grad RMS
SciTegic.value.DoubleValue
0.000000

@<SCITEGIC>MOL_PROPERTY
U
SciTegic.value.DoubleValue
45.174

@<SCITEGIC>MOL_PROPERTY
W
SciTegic.value.DoubleValue
-60.765

@<SCITEGIC>MOL_PROPERTY
W(PB)
SciTegic.value.DoubleValue
-62.518

@<SCITEGIC>MOL_PROPERTY
W(SA)
SciTegic.value.DoubleValue
1.754

@<SCITEGIC>MOL_PROPERTY
Valence
SciTegic.value.DoubleValue
1.161

@<SCITEGIC>MOL_PROPERTY
Coulomb
SciTegic.value.DoubleValue
43.789

@<SCITEGIC>MOL_PROPERTY
VdW
SciTegic.value.DoubleValue
0.224

@<SCITEGIC>MOL_PROPERTY
VdW6
SciTegic.value.DoubleValue
-2.897

@<SCITEGIC>MOL_PROPERTY
VdW12
SciTegic.value.DoubleValue
3.121

@<SCITEGIC>MOL_PROPERTY
Bond
SciTegic.value.DoubleValue
0.100

@<SCITEGIC>MOL_PROPERTY
Angle
SciTegic.value.DoubleValue
0.500

@<SCITEGIC>MOL_PROPERTY
Pdih
SciTegic.value.DoubleValue
0.561

@<SCITEGIC>MOL_PROPERTY
Idih
SciTegic.value.DoubleValue
0.000

@<SCITEGIC>MOL_PROPERTY
Tether
SciTegic.value.DoubleValue
0.000

@<TRIPOS>MOLECULE
guest-1_confgen4.mol2 : confsearch ligand conformer 21
          17          16           1
SMALL
USER_CHARGES
 
@<TRIPOS>ATOM
       1    N1      19.320087   19.638841   19.974135 N.4        1 MOL1        -0.5891
       2    H1      20.328265   19.782597   20.072900 H          1 MOL1         0.3726
       3    H2      18.866404   20.533634   20.181493 H          1 MOL1         0.3726
       4    H3      19.138875   19.435681   18.985848 H          1 MOL1         0.3726
       5    C1      18.818953   18.529869   20.879164 C.3        1 MOL1         0.0314
       6    H4      19.283999   17.590353   20.568771 H          1 MOL1         0.0999
       7    H5      17.741536   18.444346   20.713646 H          1 MOL1         0.0999
       8    C2      19.079324   18.770355   22.381158 C.3        1 MOL1        -0.1308
       9    H6      18.838456   19.809309   22.642471 H          1 MOL1         0.1025
      10    H7      18.374963   18.146419   22.947220 H          1 MOL1         0.1025
      11    C3      20.513511   18.415150   22.849817 C.3        1 MOL1        -0.1243
      12    H8      20.719297   17.356111   22.639793 H          1 MOL1         0.1025
      13    H9      20.556773   18.522038   23.942837 H          1 MOL1         0.1025
      14    C4      21.624727   19.289393   22.225491 C.3        1 MOL1        -0.2258
      15    H10     21.763718   19.064350   21.161671 H          1 MOL1         0.1036
      16    H11     22.584255   19.097968   22.723303 H          1 MOL1         0.1036
      17    H12     21.400054   20.358301   22.335543 H          1 MOL1         0.1036
@<TRIPOS>BOND
    1     1     2    1
    2     1     3    1
    3     1     4    1
    4     1     5    1
    5     5     6    1
    6     5     7    1
    7     5     8    1
    8     8     9    1
    9     8    10    1
   10     8    11    1
   11    11    12    1
   12    11    13    1
   13    11    14    1
   14    14    15    1
   15    14    16    1
   16    14    17    1
@<TRIPOS>SUBSTRUCTURE
       1 MOL1            1 RESIDUE      1      MOL     
@<SCITEGIC>MOL_PROPERTY
VConf Rank
SciTegic.value.IntegerValue
21

@<SCITEGIC>MOL_PROPERTY
Conf_Id
SciTegic.value.IntegerValue
19

@<SCITEGIC>MOL_PROPERTY
Delta U+W
SciTegic.value.DoubleValue
2.662

@<SCITEGIC>MOL_PROPERTY
U+W
SciTegic.value.DoubleValue
-13.203

@<SCITEGIC>MOL_PROPERTY
Grad RMS
SciTegic.value.DoubleValue
0.000000

@<SCITEGIC>MOL_PROPERTY
U
SciTegic.value.DoubleValue
47.423

@<SCITEGIC>MOL_PROPERTY
W
SciTegic.value.DoubleValue
-60.626

@<SCITEGIC>MOL_PROPERTY
W(PB)
SciTegic.value.DoubleValue
-62.328

@<SCITEGIC>MOL_PROPERTY
W(SA)
SciTegic.value.DoubleValue
1.702

@<SCITEGIC>MOL_PROPERTY
Valence
SciTegic.value.DoubleValue
2.414

@<SCITEGIC>MOL_PROPERTY
Coulomb
SciTegic.value.DoubleValue
44.831

@<SCITEGIC>MOL_PROPERTY
VdW
SciTegic.value.DoubleValue
0.178

@<SCITEGIC>MOL_PROPERTY
VdW6
SciTegic.value.DoubleValue
-3.743

@<SCITEGIC>MOL_PROPERTY
VdW12
SciTegic.value.DoubleValue
3.921

@<SCITEGIC>MOL_PROPERTY
Bond
SciTegic.value.DoubleValue
0.138

@<SCITEGIC>MOL_PROPERTY
Angle
SciTegic.value.DoubleValue
0.941

@<SCITEGIC>MOL_PROPERTY
Pdih
SciTegic.value.DoubleValue
1.335

@<SCITEGIC>MOL_PROPERTY
Idih
SciTegic.value.DoubleValue
0.000

@<SCITEGIC>MOL_PROPERTY
Tether
SciTegic.value.DoubleValue
0.000

@<TRIPOS>MOLECULE
guest-1_confgen4.mol2 : confsearch ligand conformer 22
          17          16           1
SMALL
USER_CHARGES
 
@<TRIPOS>ATOM
       1    N1      18.054557   19.275447   21.326329 N.4        1 MOL1        -0.5891
       2    H1      17.171570   18.825308   21.064540 H          1 MOL1         0.3726
       3    H2      17.884865   20.285735   21.324692 H          1 MOL1         0.3726
       4    H3      18.256137   19.005730   22.292487 H          1 MOL1         0.3726
       5    C1      19.183025   18.892066   20.388449 C.3        1 MOL1         0.0314
       6    H4      18.889501   19.215351   19.386019 H          1 MOL1         0.0999
       7    H5      19.272972   17.802513   20.379158 H          1 MOL1         0.0999
       8    C2      20.545007   19.525606   20.742346 C.3        1 MOL1        -0.1308
       9    H6      21.167356   19.508704   19.837779 H          1 MOL1         0.1025
      10    H7      20.411567   20.585531   20.996281 H          1 MOL1         0.1025
      11    C3      21.320623   18.794992   21.868102 C.3        1 MOL1        -0.1243
      12    H8      22.311243   19.261202   21.964590 H          1 MOL1         0.1025
      13    H9      21.503193   17.751785   21.574148 H          1 MOL1         0.1025
      14    C4      20.625111   18.827039   23.247999 C.3        1 MOL1        -0.2258
      15    H10     20.343125   19.850218   23.528608 H          1 MOL1         0.1036
      16    H11     21.300682   18.443379   24.023604 H          1 MOL1         0.1036
      17    H12     19.728678   18.196240   23.261473 H          1 MOL1         0.1036
@<TRIPOS>BOND
    1     1     2    1
    2     1     3    1
    3     1     4    1
    4     1     5    1
    5     5     6    1
    6     5     7    1
    7     5     8    1
    8     8     9    1
    9     8    10    1
   10     8    11    1
   11    11    12    1
   12    11    13    1
   13    11    14    1
   14    14    15    1
   15    14    16    1
   16    14    17    1
@<TRIPOS>SUBSTRUCTURE
       1 MOL1            1 RESIDUE      1      MOL     
@<SCITEGIC>MOL_PROPERTY
VConf Rank
SciTegic.value.IntegerValue
22

@<SCITEGIC>MOL_PROPERTY
Conf_Id
SciTegic.value.IntegerValue
44

@<SCITEGIC>MOL_PROPERTY
Delta U+W
SciTegic.value.DoubleValue
2.712

@<SCITEGIC>MOL_PROPERTY
U+W
SciTegic.value.DoubleValue
-13.153

@<SCITEGIC>MOL_PROPERTY
Grad RMS
SciTegic.value.DoubleValue
0.000000

@<SCITEGIC>MOL_PROPERTY
U
SciTegic.value.DoubleValue
47.423

@<SCITEGIC>MOL_PROPERTY
W
SciTegic.value.DoubleValue
-60.576

@<SCITEGIC>MOL_PROPERTY
W(PB)
SciTegic.value.DoubleValue
-62.262

@<SCITEGIC>MOL_PROPERTY
W(SA)
SciTegic.value.DoubleValue
1.687

@<SCITEGIC>MOL_PROPERTY
Valence
SciTegic.value.DoubleValue
2.414

@<SCITEGIC>MOL_PROPERTY
Coulomb
SciTegic.value.DoubleValue
44.831

@<SCITEGIC>MOL_PROPERTY
VdW
SciTegic.value.DoubleValue
0.178

@<SCITEGIC>MOL_PROPERTY
VdW6
SciTegic.value.DoubleValue
-3.743

@<SCITEGIC>MOL_PROPERTY
VdW12
SciTegic.value.DoubleValue
3.922

@<SCITEGIC>MOL_PROPERTY
Bond
SciTegic.value.DoubleValue
0.138

@<SCITEGIC>MOL_PROPERTY
Angle
SciTegic.value.DoubleValue
0.941

@<SCITEGIC>MOL_PROPERTY
Pdih
SciTegic.value.DoubleValue
1.335

@<SCITEGIC>MOL_PROPERTY
Idih
SciTegic.value.DoubleValue
0.000

@<SCITEGIC>MOL_PROPERTY
Tether
SciTegic.value.DoubleValue
0.000

@<TRIPOS>MOLECULE
guest-1_confgen4.mol2 : confsearch ligand conformer 23
          17          16           1
SMALL
USER_CHARGES
 
@<TRIPOS>ATOM
       1    N1      19.006133   19.844217   23.168918 N.4        1 MOL1        -0.5891
       2    H1      20.001538   20.069768   23.251026 H          1 MOL1         0.3726
       3    H2      18.795089   19.140793   23.883084 H          1 MOL1         0.3726
       4    H3      18.485763   20.690377   23.421694 H          1 MOL1         0.3726
       5    C1      18.652864   19.359877   21.775909 C.3        1 MOL1         0.0314
       6    H4      18.874006   20.164914   21.070349 H          1 MOL1         0.0999
       7    H5      17.575459   19.175190   21.750872 H          1 MOL1         0.0999
       8    C2      19.400665   18.078221   21.353922 C.3        1 MOL1        -0.1308
       9    H6      19.140411   17.265177   22.044558 H          1 MOL1         0.1025
      10    H7      19.036108   17.768150   20.365612 H          1 MOL1         0.1025
      11    C3      20.940838   18.235550   21.302247 C.3        1 MOL1        -0.1243
      12    H8      21.384998   17.274131   21.008480 H          1 MOL1         0.1025
      13    H9      21.331719   18.456101   22.304855 H          1 MOL1         0.1025
      14    C4      21.405060   19.326990   20.310756 C.3        1 MOL1        -0.2258
      15    H10     21.027259   19.127899   19.299471 H          1 MOL1         0.1036
      16    H11     22.501064   19.358529   20.258307 H          1 MOL1         0.1036
      17    H12     21.059670   20.322877   20.615491 H          1 MOL1         0.1036
@<TRIPOS>BOND
    1     1     2    1
    2     1     3    1
    3     1     4    1
    4     1     5    1
    5     5     6    1
    6     5     7    1
    7     5     8    1
    8     8     9    1
    9     8    10    1
   10     8    11    1
   11    11    12    1
   12    11    13    1
   13    11    14    1
   14    14    15    1
   15    14    16    1
   16    14    17    1
@<TRIPOS>SUBSTRUCTURE
       1 MOL1            1 RESIDUE      1      MOL     
@<SCITEGIC>MOL_PROPERTY
VConf Rank
SciTegic.value.IntegerValue
23

@<SCITEGIC>MOL_PROPERTY
Conf_Id
SciTegic.value.IntegerValue
1

@<SCITEGIC>MOL_PROPERTY
Delta U+W
SciTegic.value.DoubleValue
0.685

@<SCITEGIC>MOL_PROPERTY
U+W
SciTegic.value.DoubleValue
-15.179

@<SCITEGIC>MOL_PROPERTY
Grad RMS
SciTegic.value.DoubleValue
0.000000

@<SCITEGIC>MOL_PROPERTY
U
SciTegic.value.DoubleValue
45.697

@<SCITEGIC>MOL_PROPERTY
W
SciTegic.value.DoubleValue
-60.876

@<SCITEGIC>MOL_PROPERTY
W(PB)
SciTegic.value.DoubleValue
-62.586

@<SCITEGIC>MOL_PROPERTY
W(SA)
SciTegic.value.DoubleValue
1.710

@<SCITEGIC>MOL_PROPERTY
Valence
SciTegic.value.DoubleValue
1.263

@<SCITEGIC>MOL_PROPERTY
Coulomb
SciTegic.value.DoubleValue
44.179

@<SCITEGIC>MOL_PROPERTY
VdW
SciTegic.value.DoubleValue
0.255

@<SCITEGIC>MOL_PROPERTY
VdW6
SciTegic.value.DoubleValue
-3.552

@<SCITEGIC>MOL_PROPERTY
VdW12
SciTegic.value.DoubleValue
3.807

@<SCITEGIC>MOL_PROPERTY
Bond
SciTegic.value.DoubleValue
0.125

@<SCITEGIC>MOL_PROPERTY
Angle
SciTegic.value.DoubleValue
0.616

@<SCITEGIC>MOL_PROPERTY
Pdih
SciTegic.value.DoubleValue
0.521

@<SCITEGIC>MOL_PROPERTY
Idih
SciTegic.value.DoubleValue
0.000

@<SCITEGIC>MOL_PROPERTY
Tether
SciTegic.value.DoubleValue
0.000

@<TRIPOS>MOLECULE
guest-1_confgen4.mol2 : confsearch ligand conformer 24
          17          16           1
SMALL
USER_CHARGES
 
@<TRIPOS>ATOM
       1    N1      21.889646   19.096082   21.888654 N.4        1 MOL1        -0.5891
       2    H1      22.128133   19.631887   22.728543 H          1 MOL1         0.3726
       3    H2      21.671191   19.771417   21.150650 H          1 MOL1         0.3726
       4    H3      22.739767   18.601646   21.599700 H          1 MOL1         0.3726
       5    C1      20.737791   18.140887   22.135007 C.3        1 MOL1         0.0314
       6    H4      21.053502   17.429639   22.903115 H          1 MOL1         0.0999
       7    H5      20.556001   17.583254   21.212617 H          1 MOL1         0.0999
       8    C2      19.437357   18.836927   22.587025 C.3        1 MOL1        -0.1308
       9    H6      18.683866   18.067735   22.802426 H          1 MOL1         0.1025
      10    H7      19.619457   19.360292   23.535011 H          1 MOL1         0.1025
      11    C3      18.864070   19.835269   21.550582 C.3        1 MOL1        -0.1243
      12    H8      19.569614   20.662246   21.392563 H          1 MOL1         0.1025
      13    H9      17.952385   20.289369   21.963535 H          1 MOL1         0.1025
      14    C4      18.525760   19.173348   20.195147 C.3        1 MOL1        -0.2258
      15    H10     18.063128   19.901196   19.516047 H          1 MOL1         0.1036
      16    H11     17.819979   18.342922   20.326798 H          1 MOL1         0.1036
      17    H12     19.424339   18.783922   19.700322 H          1 MOL1         0.1036
@<TRIPOS>BOND
    1     1     2    1
    2     1     3    1
    3     1     4    1
    4     1     5    1
    5     5     6    1
    6     5     7    1
    7     5     8    1
    8     8     9    1
    9     8    10    1
   10     8    11    1
   11    11    12    1
   12    11    13    1
   13    11    14    1
   14    14    15    1
   15    14    16    1
   16    14    17    1
@<TRIPOS>SUBSTRUCTURE
       1 MOL1            1 RESIDUE      1      MOL     
@<SCITEGIC>MOL_PROPERTY
VConf Rank
SciTegic.value.IntegerValue
24

@<SCITEGIC>MOL_PROPERTY
Conf_Id
SciTegic.value.IntegerValue
43

@<SCITEGIC>MOL_PROPERTY
Delta U+W
SciTegic.value.DoubleValue
0.642

@<SCITEGIC>MOL_PROPERTY
U+W
SciTegic.value.DoubleValue
-15.222

@<SCITEGIC>MOL_PROPERTY
Grad RMS
SciTegic.value.DoubleValue
0.000000

@<SCITEGIC>MOL_PROPERTY
U
SciTegic.value.DoubleValue
45.697

@<SCITEGIC>MOL_PROPERTY
W
SciTegic.value.DoubleValue
-60.919

@<SCITEGIC>MOL_PROPERTY
W(PB)
SciTegic.value.DoubleValue
-62.631

@<SCITEGIC>MOL_PROPERTY
W(SA)
SciTegic.value.DoubleValue
1.712

@<SCITEGIC>MOL_PROPERTY
Valence
SciTegic.value.DoubleValue
1.262

@<SCITEGIC>MOL_PROPERTY
Coulomb
SciTegic.value.DoubleValue
44.179

@<SCITEGIC>MOL_PROPERTY
VdW
SciTegic.value.DoubleValue
0.255

@<SCITEGIC>MOL_PROPERTY
VdW6
SciTegic.value.DoubleValue
-3.552

@<SCITEGIC>MOL_PROPERTY
VdW12
SciTegic.value.DoubleValue
3.807

@<SCITEGIC>MOL_PROPERTY
Bond
SciTegic.value.DoubleValue
0.125

@<SCITEGIC>MOL_PROPERTY
Angle
SciTegic.value.DoubleValue
0.616

@<SCITEGIC>MOL_PROPERTY
Pdih
SciTegic.value.DoubleValue
0.521

@<SCITEGIC>MOL_PROPERTY
Idih
SciTegic.value.DoubleValue
0.000

@<SCITEGIC>MOL_PROPERTY
Tether
SciTegic.value.DoubleValue
0.000

@<TRIPOS>MOLECULE
guest-1_confgen4.mol2 : confsearch ligand conformer 25
          17          16           1
SMALL
USER_CHARGES
 
@<TRIPOS>ATOM
       1    N1      17.912589   17.736099   22.412022 N.4        1 MOL1        -0.5891
       2    H1      18.291231   17.449933   23.320006 H          1 MOL1         0.3726
       3    H2      18.013294   16.936944   21.778849 H          1 MOL1         0.3726
       4    H3      16.906881   17.884587   22.543970 H          1 MOL1         0.3726
       5    C1      18.599686   18.975976   21.875403 C.3        1 MOL1         0.0314
       6    H4      18.425537   19.791321   22.582798 H          1 MOL1         0.0999
       7    H5      18.126633   19.239721   20.925570 H          1 MOL1         0.0999
       8    C2      20.113168   18.787887   21.665028 C.3        1 MOL1        -0.1308
       9    H6      20.582411   18.508022   22.617644 H          1 MOL1         0.1025
      10    H7      20.284531   17.958428   20.966012 H          1 MOL1         0.1025
      11    C3      20.773524   20.072667   21.118410 C.3        1 MOL1        -0.1243
      12    H8      20.599489   20.904098   21.816091 H          1 MOL1         0.1025
      13    H9      20.302033   20.355138   20.166448 H          1 MOL1         0.1025
      14    C4      22.291930   19.891531   20.904901 C.3        1 MOL1        -0.2258
      15    H10     22.741837   20.814520   20.516669 H          1 MOL1         0.1036
      16    H11     22.496923   19.088772   20.184649 H          1 MOL1         0.1036
      17    H12     22.796712   19.642004   21.847313 H          1 MOL1         0.1036
@<TRIPOS>BOND
    1     1     2    1
    2     1     3    1
    3     1     4    1
    4     1     5    1
    5     5     6    1
    6     5     7    1
    7     5     8    1
    8     8     9    1
    9     8    10    1
   10     8    11    1
   11    11    12    1
   12    11    13    1
   13    11    14    1
   14    14    15    1
   15    14    16    1
   16    14    17    1
@<TRIPOS>SUBSTRUCTURE
       1 MOL1            1 RESIDUE      1      MOL     
@<SCITEGIC>MOL_PROPERTY
VConf Rank
SciTegic.value.IntegerValue
25

@<SCITEGIC>MOL_PROPERTY
Conf_Id
SciTegic.value.IntegerValue
7

@<SCITEGIC>MOL_PROPERTY
Delta U+W
SciTegic.value.DoubleValue
0.000

@<SCITEGIC>MOL_PROPERTY
U+W
SciTegic.value.DoubleValue
-15.865

@<SCITEGIC>MOL_PROPERTY
Grad RMS
SciTegic.value.DoubleValue
0.000000

@<SCITEGIC>MOL_PROPERTY
U
SciTegic.value.DoubleValue
44.664

@<SCITEGIC>MOL_PROPERTY
W
SciTegic.value.DoubleValue
-60.529

@<SCITEGIC>MOL_PROPERTY
W(PB)
SciTegic.value.DoubleValue
-62.309

@<SCITEGIC>MOL_PROPERTY
W(SA)
SciTegic.value.DoubleValue
1.780

@<SCITEGIC>MOL_PROPERTY
Valence
SciTegic.value.DoubleValue
0.872

@<SCITEGIC>MOL_PROPERTY
Coulomb
SciTegic.value.DoubleValue
43.648

@<SCITEGIC>MOL_PROPERTY
VdW
SciTegic.value.DoubleValue
0.144

@<SCITEGIC>MOL_PROPERTY
VdW6
SciTegic.value.DoubleValue
-2.370

@<SCITEGIC>MOL_PROPERTY
VdW12
SciTegic.value.DoubleValue
2.515

@<SCITEGIC>MOL_PROPERTY
Bond
SciTegic.value.DoubleValue
0.080

@<SCITEGIC>MOL_PROPERTY
Angle
SciTegic.value.DoubleValue
0.376

@<SCITEGIC>MOL_PROPERTY
Pdih
SciTegic.value.DoubleValue
0.416

@<SCITEGIC>MOL_PROPERTY
Idih
SciTegic.value.DoubleValue
0.000

@<SCITEGIC>MOL_PROPERTY
Tether
SciTegic.value.DoubleValue
0.000

@<TRIPOS>MOLECULE
guest-1_confgen4.mol2 : confsearch ligand conformer 26
          17          16           1
SMALL
USER_CHARGES
 
@<TRIPOS>ATOM
       1    N1      20.582760   17.031227   20.554473 N.4        1 MOL1        -0.5891
       2    H1      20.373550   17.097534   19.553732 H          1 MOL1         0.3726
       3    H2      19.868785   16.426253   20.971478 H          1 MOL1         0.3726
       4    H3      21.476459   16.536096   20.638087 H          1 MOL1         0.3726
       5    C1      20.629195   18.393970   21.216388 C.3        1 MOL1         0.0314
       6    H4      21.428502   18.971793   20.744542 H          1 MOL1         0.0999
       7    H5      20.886949   18.247662   22.268526 H          1 MOL1         0.0999
       8    C2      19.300146   19.166071   21.109384 C.3        1 MOL1        -0.1308
       9    H6      19.030168   19.272571   20.050306 H          1 MOL1         0.1025
      10    H7      18.497035   18.584947   21.581819 H          1 MOL1         0.1025
      11    C3      19.372446   20.570115   21.753929 C.3        1 MOL1        -0.1243
      12    H8      18.423996   21.095185   21.573022 H          1 MOL1         0.1025
      13    H9      20.153687   21.164716   21.259668 H          1 MOL1         0.1025
      14    C4      19.640416   20.523301   23.275756 C.3        1 MOL1        -0.2258
      15    H10     18.876122   19.929155   23.793414 H          1 MOL1         0.1036
      16    H11     19.622570   21.535149   23.701025 H          1 MOL1         0.1036
      17    H12     20.622596   20.088028   23.499252 H          1 MOL1         0.1036
@<TRIPOS>BOND
    1     1     2    1
    2     1     3    1
    3     1     4    1
    4     1     5    1
    5     5     6    1
    6     5     7    1
    7     5     8    1
    8     8     9    1
    9     8    10    1
   10     8    11    1
   11    11    12    1
   12    11    13    1
   13    11    14    1
   14    14    15    1
   15    14    16    1
   16    14    17    1
@<TRIPOS>SUBSTRUCTURE
       1 MOL1            1 RESIDUE      1      MOL     
@<SCITEGIC>MOL_PROPERTY
VConf Rank
SciTegic.value.IntegerValue
26

@<SCITEGIC>MOL_PROPERTY
Conf_Id
SciTegic.value.IntegerValue
36

@<SCITEGIC>MOL_PROPERTY
Delta U+W
SciTegic.value.DoubleValue
0.275

@<SCITEGIC>MOL_PROPERTY
U+W
SciTegic.value.DoubleValue
-15.590

@<SCITEGIC>MOL_PROPERTY
Grad RMS
SciTegic.value.DoubleValue
0.000000

@<SCITEGIC>MOL_PROPERTY
U
SciTegic.value.DoubleValue
45.174

@<SCITEGIC>MOL_PROPERTY
W
SciTegic.value.DoubleValue
-60.765

@<SCITEGIC>MOL_PROPERTY
W(PB)
SciTegic.value.DoubleValue
-62.518

@<SCITEGIC>MOL_PROPERTY
W(SA)
SciTegic.value.DoubleValue
1.754

@<SCITEGIC>MOL_PROPERTY
Valence
SciTegic.value.DoubleValue
1.161

@<SCITEGIC>MOL_PROPERTY
Coulomb
SciTegic.value.DoubleValue
43.789

@<SCITEGIC>MOL_PROPERTY
VdW
SciTegic.value.DoubleValue
0.224

@<SCITEGIC>MOL_PROPERTY
VdW6
SciTegic.value.DoubleValue
-2.897

@<SCITEGIC>MOL_PROPERTY
VdW12
SciTegic.value.DoubleValue
3.121

@<SCITEGIC>MOL_PROPERTY
Bond
SciTegic.value.DoubleValue
0.100

@<SCITEGIC>MOL_PROPERTY
Angle
SciTegic.value.DoubleValue
0.500

@<SCITEGIC>MOL_PROPERTY
Pdih
SciTegic.value.DoubleValue
0.561

@<SCITEGIC>MOL_PROPERTY
Idih
SciTegic.value.DoubleValue
0.000

@<SCITEGIC>MOL_PROPERTY
Tether
SciTegic.value.DoubleValue
0.000

@<TRIPOS>MOLECULE
guest-1_confgen4.mol2 : confsearch ligand conformer 27
          17          16           1
SMALL
USER_CHARGES
 
@<TRIPOS>ATOM
       1    N1      21.526811   19.465289   20.762644 N.4        1 MOL1        -0.5891
       2    H1      21.434751   19.923779   21.672675 H          1 MOL1         0.3726
       3    H2      21.273714   20.156423   20.050075 H          1 MOL1         0.3726
       4    H3      22.520782   19.252335   20.630378 H          1 MOL1         0.3726
       5    C1      20.665980   18.220074   20.670782 C.3        1 MOL1         0.0314
       6    H4      21.024151   17.494275   21.405787 H          1 MOL1         0.0999
       7    H5      20.821215   17.796774   19.674662 H          1 MOL1         0.0999
       8    C2      19.158212   18.474306   20.879620 C.3        1 MOL1        -0.1308
       9    H6      18.847510   19.368558   20.323285 H          1 MOL1         0.1025
      10    H7      18.611614   17.634804   20.429827 H          1 MOL1         0.1025
      11    C3      18.724530   18.584855   22.363669 C.3        1 MOL1        -0.1243
      12    H8      18.984443   17.658300   22.894670 H          1 MOL1         0.1025
      13    H9      17.628469   18.658136   22.399308 H          1 MOL1         0.1025
      14    C4      19.323373   19.794925   23.116000 C.3        1 MOL1        -0.2258
      15    H10     20.397917   19.667824   23.291714 H          1 MOL1         0.1036
      16    H11     18.847091   19.905541   24.098891 H          1 MOL1         0.1036
      17    H12     19.162635   20.728517   22.561273 H          1 MOL1         0.1036
@<TRIPOS>BOND
    1     1     2    1
    2     1     3    1
    3     1     4    1
    4     1     5    1
    5     5     6    1
    6     5     7    1
    7     5     8    1
    8     8     9    1
    9     8    10    1
   10     8    11    1
   11    11    12    1
   12    11    13    1
   13    11    14    1
   14    14    15    1
   15    14    16    1
   16    14    17    1
@<TRIPOS>SUBSTRUCTURE
       1 MOL1            1 RESIDUE      1      MOL     
@<SCITEGIC>MOL_PROPERTY
VConf Rank
SciTegic.value.IntegerValue
27

@<SCITEGIC>MOL_PROPERTY
Conf_Id
SciTegic.value.IntegerValue
19

@<SCITEGIC>MOL_PROPERTY
Delta U+W
SciTegic.value.DoubleValue
2.662

@<SCITEGIC>MOL_PROPERTY
U+W
SciTegic.value.DoubleValue
-13.203

@<SCITEGIC>MOL_PROPERTY
Grad RMS
SciTegic.value.DoubleValue
0.000000

@<SCITEGIC>MOL_PROPERTY
U
SciTegic.value.DoubleValue
47.423

@<SCITEGIC>MOL_PROPERTY
W
SciTegic.value.DoubleValue
-60.626

@<SCITEGIC>MOL_PROPERTY
W(PB)
SciTegic.value.DoubleValue
-62.328

@<SCITEGIC>MOL_PROPERTY
W(SA)
SciTegic.value.DoubleValue
1.702

@<SCITEGIC>MOL_PROPERTY
Valence
SciTegic.value.DoubleValue
2.414

@<SCITEGIC>MOL_PROPERTY
Coulomb
SciTegic.value.DoubleValue
44.831

@<SCITEGIC>MOL_PROPERTY
VdW
SciTegic.value.DoubleValue
0.178

@<SCITEGIC>MOL_PROPERTY
VdW6
SciTegic.value.DoubleValue
-3.743

@<SCITEGIC>MOL_PROPERTY
VdW12
SciTegic.value.DoubleValue
3.921

@<SCITEGIC>MOL_PROPERTY
Bond
SciTegic.value.DoubleValue
0.138

@<SCITEGIC>MOL_PROPERTY
Angle
SciTegic.value.DoubleValue
0.941

@<SCITEGIC>MOL_PROPERTY
Pdih
SciTegic.value.DoubleValue
1.335

@<SCITEGIC>MOL_PROPERTY
Idih
SciTegic.value.DoubleValue
0.000

@<SCITEGIC>MOL_PROPERTY
Tether
SciTegic.value.DoubleValue
0.000

@<TRIPOS>MOLECULE
guest-1_confgen4.mol2 : confsearch ligand conformer 28
          17          16           1
SMALL
USER_CHARGES
 
@<TRIPOS>ATOM
       1    N1      18.375435   19.090733   22.690743 N.4        1 MOL1        -0.5891
       2    H1      17.526211   19.597205   22.961168 H          1 MOL1         0.3726
       3    H2      18.517052   18.354309   23.388671 H          1 MOL1         0.3726
       4    H3      18.179810   18.627331   21.799769 H          1 MOL1         0.3726
       5    C1      19.575421   20.012995   22.593248 C.3        1 MOL1         0.0314
       6    H4      19.714705   20.461990   23.580436 H          1 MOL1         0.0999
       7    H5      19.341907   20.814648   21.887468 H          1 MOL1         0.0999
       8    C2      20.883058   19.310256   22.171521 C.3        1 MOL1        -0.1308
       9    H6      21.721607   19.941690   22.493972 H          1 MOL1         0.1025
      10    H7      20.992767   18.362933   22.715830 H          1 MOL1         0.1025
      11    C3      21.023019   19.074795   20.645850 C.3        1 MOL1        -0.1243
      12    H8      22.025551   18.669720   20.448790 H          1 MOL1         0.1025
      13    H9      20.975046   20.037330   20.117413 H          1 MOL1         0.1025
      14    C4      19.975394   18.107279   20.049800 C.3        1 MOL1        -0.2258
      15    H10     19.931695   17.168368   20.616976 H          1 MOL1         0.1036
      16    H11     20.234514   17.857851   19.012593 H          1 MOL1         0.1036
      17    H12     18.976018   18.557413   20.032356 H          1 MOL1         0.1036
@<TRIPOS>BOND
    1     1     2    1
    2     1     3    1
    3     1     4    1
    4     1     5    1
    5     5     6    1
    6     5     7    1
    7     5     8    1
    8     8     9    1
    9     8    10    1
   10     8    11    1
   11    11    12    1
   12    11    13    1
   13    11    14    1
   14    14    15    1
   15    14    16    1
   16    14    17    1
@<TRIPOS>SUBSTRUCTURE
       1 MOL1            1 RESIDUE      1      MOL     
@<SCITEGIC>MOL_PROPERTY
VConf Rank
SciTegic.value.IntegerValue
28

@<SCITEGIC>MOL_PROPERTY
Conf_Id
SciTegic.value.IntegerValue
44

@<SCITEGIC>MOL_PROPERTY
Delta U+W
SciTegic.value.DoubleValue
2.712

@<SCITEGIC>MOL_PROPERTY
U+W
SciTegic.value.DoubleValue
-13.153

@<SCITEGIC>MOL_PROPERTY
Grad RMS
SciTegic.value.DoubleValue
0.000000

@<SCITEGIC>MOL_PROPERTY
U
SciTegic.value.DoubleValue
47.423

@<SCITEGIC>MOL_PROPERTY
W
SciTegic.value.DoubleValue
-60.576

@<SCITEGIC>MOL_PROPERTY
W(PB)
SciTegic.value.DoubleValue
-62.262

@<SCITEGIC>MOL_PROPERTY
W(SA)
SciTegic.value.DoubleValue
1.687

@<SCITEGIC>MOL_PROPERTY
Valence
SciTegic.value.DoubleValue
2.414

@<SCITEGIC>MOL_PROPERTY
Coulomb
SciTegic.value.DoubleValue
44.831

@<SCITEGIC>MOL_PROPERTY
VdW
SciTegic.value.DoubleValue
0.178

@<SCITEGIC>MOL_PROPERTY
VdW6
SciTegic.value.DoubleValue
-3.743

@<SCITEGIC>MOL_PROPERTY
VdW12
SciTegic.value.DoubleValue
3.922

@<SCITEGIC>MOL_PROPERTY
Bond
SciTegic.value.DoubleValue
0.138

@<SCITEGIC>MOL_PROPERTY
Angle
SciTegic.value.DoubleValue
0.941

@<SCITEGIC>MOL_PROPERTY
Pdih
SciTegic.value.DoubleValue
1.335

@<SCITEGIC>MOL_PROPERTY
Idih
SciTegic.value.DoubleValue
0.000

@<SCITEGIC>MOL_PROPERTY
Tether
SciTegic.value.DoubleValue
0.000

@<TRIPOS>MOLECULE
guest-1_confgen4.mol2 : confsearch ligand conformer 29
          17          16           1
SMALL
USER_CHARGES
 
@<TRIPOS>ATOM
       1    N1      18.173184   19.045062   20.651106 N.4        1 MOL1        -0.5891
       2    H1      18.553887   18.097625   20.574458 H          1 MOL1         0.3726
       3    H2      18.249334   19.477821   19.725742 H          1 MOL1         0.3726
       4    H3      17.172908   18.950095   20.853833 H          1 MOL1         0.3726
       5    C1      18.889907   19.854185   21.714819 C.3        1 MOL1         0.0314
       6    H4      18.744509   19.355127   22.676383 H          1 MOL1         0.0999
       7    H5      18.409465   20.834987   21.767180 H          1 MOL1         0.0999
       8    C2      20.397998   20.037881   21.446793 C.3        1 MOL1        -0.1308
       9    H6      20.532702   20.575817   20.499043 H          1 MOL1         0.1025
      10    H7      20.817251   20.685619   22.228117 H          1 MOL1         0.1025
      11    C3      21.196242   18.711073   21.402720 C.3        1 MOL1        -0.1243
      12    H8      22.250746   18.939417   21.193472 H          1 MOL1         0.1025
      13    H9      20.849187   18.089215   20.566359 H          1 MOL1         0.1025
      14    C4      21.108372   17.907528   22.720442 C.3        1 MOL1        -0.2258
      15    H10     21.451476   18.508416   23.572663 H          1 MOL1         0.1036
      16    H11     21.739507   17.010959   22.667502 H          1 MOL1         0.1036
      17    H12     20.081967   17.577935   22.924914 H          1 MOL1         0.1036
@<TRIPOS>BOND
    1     1     2    1
    2     1     3    1
    3     1     4    1
    4     1     5    1
    5     5     6    1
    6     5     7    1
    7     5     8    1
    8     8     9    1
    9     8    10    1
   10     8    11    1
   11    11    12    1
   12    11    13    1
   13    11    14    1
   14    14    15    1
   15    14    16    1
   16    14    17    1
@<TRIPOS>SUBSTRUCTURE
       1 MOL1            1 RESIDUE      1      MOL     
@<SCITEGIC>MOL_PROPERTY
VConf Rank
SciTegic.value.IntegerValue
29

@<SCITEGIC>MOL_PROPERTY
Conf_Id
SciTegic.value.IntegerValue
1

@<SCITEGIC>MOL_PROPERTY
Delta U+W
SciTegic.value.DoubleValue
0.685

@<SCITEGIC>MOL_PROPERTY
U+W
SciTegic.value.DoubleValue
-15.179

@<SCITEGIC>MOL_PROPERTY
Grad RMS
SciTegic.value.DoubleValue
0.000000

@<SCITEGIC>MOL_PROPERTY
U
SciTegic.value.DoubleValue
45.697

@<SCITEGIC>MOL_PROPERTY
W
SciTegic.value.DoubleValue
-60.876

@<SCITEGIC>MOL_PROPERTY
W(PB)
SciTegic.value.DoubleValue
-62.586

@<SCITEGIC>MOL_PROPERTY
W(SA)
SciTegic.value.DoubleValue
1.710

@<SCITEGIC>MOL_PROPERTY
Valence
SciTegic.value.DoubleValue
1.263

@<SCITEGIC>MOL_PROPERTY
Coulomb
SciTegic.value.DoubleValue
44.179

@<SCITEGIC>MOL_PROPERTY
VdW
SciTegic.value.DoubleValue
0.255

@<SCITEGIC>MOL_PROPERTY
VdW6
SciTegic.value.DoubleValue
-3.552

@<SCITEGIC>MOL_PROPERTY
VdW12
SciTegic.value.DoubleValue
3.807

@<SCITEGIC>MOL_PROPERTY
Bond
SciTegic.value.DoubleValue
0.125

@<SCITEGIC>MOL_PROPERTY
Angle
SciTegic.value.DoubleValue
0.616

@<SCITEGIC>MOL_PROPERTY
Pdih
SciTegic.value.DoubleValue
0.521

@<SCITEGIC>MOL_PROPERTY
Idih
SciTegic.value.DoubleValue
0.000

@<SCITEGIC>MOL_PROPERTY
Tether
SciTegic.value.DoubleValue
0.000

@<TRIPOS>MOLECULE
guest-1_confgen4.mol2 : confsearch ligand conformer 30
          17          16           1
SMALL
USER_CHARGES
 
@<TRIPOS>ATOM
       1    N1      21.699939   19.480252   22.370297 N.4        1 MOL1        -0.5891
       2    H1      21.612932   19.858402   23.318354 H          1 MOL1         0.3726
       3    H2      21.454325   20.232586   21.720592 H          1 MOL1         0.3726
       4    H3      22.692439   19.270312   22.223549 H          1 MOL1         0.3726
       5    C1      20.828451   18.255843   22.167348 C.3        1 MOL1         0.0314
       6    H4      21.169556   17.485186   22.863964 H          1 MOL1         0.0999
       7    H5      20.991014   17.888160   21.150890 H          1 MOL1         0.0999
       8    C2      19.324758   18.517618   22.391628 C.3        1 MOL1        -0.1308
       9    H6      18.783525   17.567885   22.287340 H          1 MOL1         0.1025
      10    H7      19.166840   18.847255   23.427075 H          1 MOL1         0.1025
      11    C3      18.715241   19.560280   21.421626 C.3        1 MOL1        -0.1243
      12    H8      19.184247   20.541169   21.578291 H          1 MOL1         0.1025
      13    H9      17.651467   19.690574   21.665169 H          1 MOL1         0.1025
      14    C4      18.844003   19.152962   19.935924 C.3        1 MOL1        -0.2258
      15    H10     18.342542   19.886036   19.290859 H          1 MOL1         0.1036
      16    H11     18.380895   18.174545   19.753447 H          1 MOL1         0.1036
      17    H12     19.893812   19.098973   19.621387 H          1 MOL1         0.1036
@<TRIPOS>BOND
    1     1     2    1
    2     1     3    1
    3     1     4    1
    4     1     5    1
    5     5     6    1
    6     5     7    1
    7     5     8    1
    8     8     9    1
    9     8    10    1
   10     8    11    1
   11    11    12    1
   12    11    13    1
   13    11    14    1
   14    14    15    1
   15    14    16    1
   16    14    17    1
@<TRIPOS>SUBSTRUCTURE
       1 MOL1            1 RESIDUE      1      MOL     
@<SCITEGIC>MOL_PROPERTY
VConf Rank
SciTegic.value.IntegerValue
30

@<SCITEGIC>MOL_PROPERTY
Conf_Id
SciTegic.value.IntegerValue
43

@<SCITEGIC>MOL_PROPERTY
Delta U+W
SciTegic.value.DoubleValue
0.642

@<SCITEGIC>MOL_PROPERTY
U+W
SciTegic.value.DoubleValue
-15.222

@<SCITEGIC>MOL_PROPERTY
Grad RMS
SciTegic.value.DoubleValue
0.000000

@<SCITEGIC>MOL_PROPERTY
U
SciTegic.value.DoubleValue
45.697

@<SCITEGIC>MOL_PROPERTY
W
SciTegic.value.DoubleValue
-60.919

@<SCITEGIC>MOL_PROPERTY
W(PB)
SciTegic.value.DoubleValue
-62.631

@<SCITEGIC>MOL_PROPERTY
W(SA)
SciTegic.value.DoubleValue
1.712

@<SCITEGIC>MOL_PROPERTY
Valence
SciTegic.value.DoubleValue
1.262

@<SCITEGIC>MOL_PROPERTY
Coulomb
SciTegic.value.DoubleValue
44.179

@<SCITEGIC>MOL_PROPERTY
VdW
SciTegic.value.DoubleValue
0.255

@<SCITEGIC>MOL_PROPERTY
VdW6
SciTegic.value.DoubleValue
-3.552

@<SCITEGIC>MOL_PROPERTY
VdW12
SciTegic.value.DoubleValue
3.807

@<SCITEGIC>MOL_PROPERTY
Bond
SciTegic.value.DoubleValue
0.125

@<SCITEGIC>MOL_PROPERTY
Angle
SciTegic.value.DoubleValue
0.616

@<SCITEGIC>MOL_PROPERTY
Pdih
SciTegic.value.DoubleValue
0.521

@<SCITEGIC>MOL_PROPERTY
Idih
SciTegic.value.DoubleValue
0.000

@<SCITEGIC>MOL_PROPERTY
Tether
SciTegic.value.DoubleValue
0.000

@<TRIPOS>MOLECULE
guest-1_confgen4.mol2 : confsearch ligand conformer 31
          17          16           1
SMALL
USER_CHARGES
 
@<TRIPOS>ATOM
       1    N1      18.878537   18.797103   23.916875 N.4        1 MOL1        -0.5891
       2    H1      19.479528   19.457582   24.419142 H          1 MOL1         0.3726
       3    H2      19.229774   17.856377   24.120255 H          1 MOL1         0.3726
       4    H3      17.947120   18.863418   24.339928 H          1 MOL1         0.3726
       5    C1      18.842871   19.080524   22.428333 C.3        1 MOL1         0.0314
       6    H4      18.431103   20.083288   22.285388 H          1 MOL1         0.0999
       7    H5      18.162496   18.361498   21.963988 H          1 MOL1         0.0999
       8    C2      20.226826   18.989367   21.760035 C.3        1 MOL1        -0.1308
       9    H6      20.911529   19.701803   22.239211 H          1 MOL1         0.1025
      10    H7      20.643778   17.985904   21.918786 H          1 MOL1         0.1025
      11    C3      20.145895   19.284693   20.246181 C.3        1 MOL1        -0.1243
      12    H8      19.725500   20.287743   20.086544 H          1 MOL1         0.1025
      13    H9      19.458141   18.573903   19.766495 H          1 MOL1         0.1025
      14    C4      21.530574   19.195152   19.568980 C.3        1 MOL1        -0.2258
      15    H10     21.451566   19.408079   18.494983 H          1 MOL1         0.1036
      16    H11     21.961844   18.191939   19.682017 H          1 MOL1         0.1036
      17    H12     22.231327   19.919273   20.004642 H          1 MOL1         0.1036
@<TRIPOS>BOND
    1     1     2    1
    2     1     3    1
    3     1     4    1
    4     1     5    1
    5     5     6    1
    6     5     7    1
    7     5     8    1
    8     8     9    1
    9     8    10    1
   10     8    11    1
   11    11    12    1
   12    11    13    1
   13    11    14    1
   14    14    15    1
   15    14    16    1
   16    14    17    1
@<TRIPOS>SUBSTRUCTURE
       1 MOL1            1 RESIDUE      1      MOL     
@<SCITEGIC>MOL_PROPERTY
VConf Rank
SciTegic.value.IntegerValue
31

@<SCITEGIC>MOL_PROPERTY
Conf_Id
SciTegic.value.IntegerValue
7

@<SCITEGIC>MOL_PROPERTY
Delta U+W
SciTegic.value.DoubleValue
0.000

@<SCITEGIC>MOL_PROPERTY
U+W
SciTegic.value.DoubleValue
-15.865

@<SCITEGIC>MOL_PROPERTY
Grad RMS
SciTegic.value.DoubleValue
0.000000

@<SCITEGIC>MOL_PROPERTY
U
SciTegic.value.DoubleValue
44.664

@<SCITEGIC>MOL_PROPERTY
W
SciTegic.value.DoubleValue
-60.529

@<SCITEGIC>MOL_PROPERTY
W(PB)
SciTegic.value.DoubleValue
-62.309

@<SCITEGIC>MOL_PROPERTY
W(SA)
SciTegic.value.DoubleValue
1.780

@<SCITEGIC>MOL_PROPERTY
Valence
SciTegic.value.DoubleValue
0.872

@<SCITEGIC>MOL_PROPERTY
Coulomb
SciTegic.value.DoubleValue
43.648

@<SCITEGIC>MOL_PROPERTY
VdW
SciTegic.value.DoubleValue
0.144

@<SCITEGIC>MOL_PROPERTY
VdW6
SciTegic.value.DoubleValue
-2.370

@<SCITEGIC>MOL_PROPERTY
VdW12
SciTegic.value.DoubleValue
2.515

@<SCITEGIC>MOL_PROPERTY
Bond
SciTegic.value.DoubleValue
0.080

@<SCITEGIC>MOL_PROPERTY
Angle
SciTegic.value.DoubleValue
0.376

@<SCITEGIC>MOL_PROPERTY
Pdih
SciTegic.value.DoubleValue
0.416

@<SCITEGIC>MOL_PROPERTY
Idih
SciTegic.value.DoubleValue
0.000

@<SCITEGIC>MOL_PROPERTY
Tether
SciTegic.value.DoubleValue
0.000

@<TRIPOS>MOLECULE
guest-1_confgen4.mol2 : confsearch ligand conformer 32
          17          16           1
SMALL
USER_CHARGES
 
@<TRIPOS>ATOM
       1    N1      22.272544   19.481881   21.190707 N.4        1 MOL1        -0.5891
       2    H1      22.771776   18.590640   21.268834 H          1 MOL1         0.3726
       3    H2      22.483164   20.019688   22.036904 H          1 MOL1         0.3726
       4    H3      22.692701   19.988874   20.405042 H          1 MOL1         0.3726
       5    C1      20.781985   19.283046   21.000824 C.3        1 MOL1         0.0314
       6    H4      20.630629   18.731407   20.069055 H          1 MOL1         0.0999
       7    H5      20.322551   20.269131   20.894079 H          1 MOL1         0.0999
       8    C2      20.117961   18.523603   22.165418 C.3        1 MOL1        -0.1308
       9    H6      20.613155   17.551395   22.289799 H          1 MOL1         0.1025
      10    H7      20.271430   19.076820   23.101520 H          1 MOL1         0.1025
      11    C3      18.605153   18.292813   21.941471 C.3        1 MOL1        -0.1243
      12    H8      18.211893   17.679849   22.764638 H          1 MOL1         0.1025
      13    H9      18.451512   17.710323   21.022080 H          1 MOL1         0.1025
      14    C4      17.798203   19.609112   21.863064 C.3        1 MOL1        -0.2258
      15    H10     17.939355   20.213600   22.768489 H          1 MOL1         0.1036
      16    H11     16.725436   19.397708   21.765664 H          1 MOL1         0.1036
      17    H12     18.095933   20.213883   20.997212 H          1 MOL1         0.1036
@<TRIPOS>BOND
    1     1     2    1
    2     1     3    1
    3     1     4    1
    4     1     5    1
    5     5     6    1
    6     5     7    1
    7     5     8    1
    8     8     9    1
    9     8    10    1
   10     8    11    1
   11    11    12    1
   12    11    13    1
   13    11    14    1
   14    14    15    1
   15    14    16    1
   16    14    17    1
@<TRIPOS>SUBSTRUCTURE
       1 MOL1            1 RESIDUE      1      MOL     
@<SCITEGIC>MOL_PROPERTY
VConf Rank
SciTegic.value.IntegerValue
32

@<SCITEGIC>MOL_PROPERTY
Conf_Id
SciTegic.value.IntegerValue
36

@<SCITEGIC>MOL_PROPERTY
Delta U+W
SciTegic.value.DoubleValue
0.275

@<SCITEGIC>MOL_PROPERTY
U+W
SciTegic.value.DoubleValue
-15.590

@<SCITEGIC>MOL_PROPERTY
Grad RMS
SciTegic.value.DoubleValue
0.000000

@<SCITEGIC>MOL_PROPERTY
U
SciTegic.value.DoubleValue
45.174

@<SCITEGIC>MOL_PROPERTY
W
SciTegic.value.DoubleValue
-60.765

@<SCITEGIC>MOL_PROPERTY
W(PB)
SciTegic.value.DoubleValue
-62.518

@<SCITEGIC>MOL_PROPERTY
W(SA)
SciTegic.value.DoubleValue
1.754

@<SCITEGIC>MOL_PROPERTY
Valence
SciTegic.value.DoubleValue
1.161

@<SCITEGIC>MOL_PROPERTY
Coulomb
SciTegic.value.DoubleValue
43.789

@<SCITEGIC>MOL_PROPERTY
VdW
SciTegic.value.DoubleValue
0.224

@<SCITEGIC>MOL_PROPERTY
VdW6
SciTegic.value.DoubleValue
-2.897

@<SCITEGIC>MOL_PROPERTY
VdW12
SciTegic.value.DoubleValue
3.121

@<SCITEGIC>MOL_PROPERTY
Bond
SciTegic.value.DoubleValue
0.100

@<SCITEGIC>MOL_PROPERTY
Angle
SciTegic.value.DoubleValue
0.500

@<SCITEGIC>MOL_PROPERTY
Pdih
SciTegic.value.DoubleValue
0.561

@<SCITEGIC>MOL_PROPERTY
Idih
SciTegic.value.DoubleValue
0.000

@<SCITEGIC>MOL_PROPERTY
Tether
SciTegic.value.DoubleValue
0.000

@<TRIPOS>MOLECULE
guest-1_confgen4.mol2 : confsearch ligand conformer 33
          17          16           1
SMALL
USER_CHARGES
 
@<TRIPOS>ATOM
       1    N1      19.780312   17.139642   21.474617 N.4        1 MOL1        -0.5891
       2    H1      20.372183   17.408430   22.264735 H          1 MOL1         0.3726
       3    H2      20.404413   16.853745   20.714196 H          1 MOL1         0.3726
       4    H3      19.256678   16.305491   21.758911 H          1 MOL1         0.3726
       5    C1      18.858638   18.267874   21.053145 C.3        1 MOL1         0.0314
       6    H4      18.173044   18.483501   21.877019 H          1 MOL1         0.0999
       7    H5      18.268037   17.900147   20.209638 H          1 MOL1         0.0999
       8    C2      19.589404   19.559607   20.630037 C.3        1 MOL1        -0.1308
       9    H6      20.444954   19.313743   19.987143 H          1 MOL1         0.1025
      10    H7      18.901306   20.144244   20.005083 H          1 MOL1         0.1025
      11    C3      20.041851   20.457877   21.809490 C.3        1 MOL1        -0.1243
      12    H8      19.167757   20.748827   22.408931 H          1 MOL1         0.1025
      13    H9      20.451244   21.390645   21.396778 H          1 MOL1         0.1025
      14    C4      21.106624   19.817384   22.728680 C.3        1 MOL1        -0.2258
      15    H10     20.683903   19.001429   23.326343 H          1 MOL1         0.1036
      16    H11     21.499298   20.562489   23.432799 H          1 MOL1         0.1036
      17    H12     21.953553   19.429641   22.147716 H          1 MOL1         0.1036
@<TRIPOS>BOND
    1     1     2    1
    2     1     3    1
    3     1     4    1
    4     1     5    1
    5     5     6    1
    6     5     7    1
    7     5     8    1
    8     8     9    1
    9     8    10    1
   10     8    11    1
   11    11    12    1
   12    11    13    1
   13    11    14    1
   14    14    15    1
   15    14    16    1
   16    14    17    1
@<TRIPOS>SUBSTRUCTURE
       1 MOL1            1 RESIDUE      1      MOL     
@<SCITEGIC>MOL_PROPERTY
VConf Rank
SciTegic.value.IntegerValue
33

@<SCITEGIC>MOL_PROPERTY
Conf_Id
SciTegic.value.IntegerValue
19

@<SCITEGIC>MOL_PROPERTY
Delta U+W
SciTegic.value.DoubleValue
2.662

@<SCITEGIC>MOL_PROPERTY
U+W
SciTegic.value.DoubleValue
-13.203

@<SCITEGIC>MOL_PROPERTY
Grad RMS
SciTegic.value.DoubleValue
0.000000

@<SCITEGIC>MOL_PROPERTY
U
SciTegic.value.DoubleValue
47.423

@<SCITEGIC>MOL_PROPERTY
W
SciTegic.value.DoubleValue
-60.626

@<SCITEGIC>MOL_PROPERTY
W(PB)
SciTegic.value.DoubleValue
-62.328

@<SCITEGIC>MOL_PROPERTY
W(SA)
SciTegic.value.DoubleValue
1.702

@<SCITEGIC>MOL_PROPERTY
Valence
SciTegic.value.DoubleValue
2.414

@<SCITEGIC>MOL_PROPERTY
Coulomb
SciTegic.value.DoubleValue
44.831

@<SCITEGIC>MOL_PROPERTY
VdW
SciTegic.value.DoubleValue
0.178

@<SCITEGIC>MOL_PROPERTY
VdW6
SciTegic.value.DoubleValue
-3.743

@<SCITEGIC>MOL_PROPERTY
VdW12
SciTegic.value.DoubleValue
3.921

@<SCITEGIC>MOL_PROPERTY
Bond
SciTegic.value.DoubleValue
0.138

@<SCITEGIC>MOL_PROPERTY
Angle
SciTegic.value.DoubleValue
0.941

@<SCITEGIC>MOL_PROPERTY
Pdih
SciTegic.value.DoubleValue
1.335

@<SCITEGIC>MOL_PROPERTY
Idih
SciTegic.value.DoubleValue
0.000

@<SCITEGIC>MOL_PROPERTY
Tether
SciTegic.value.DoubleValue
0.000

@<TRIPOS>MOLECULE
guest-1_confgen4.mol2 : confsearch ligand conformer 34
          17          16           1
SMALL
USER_CHARGES
 
@<TRIPOS>ATOM
       1    N1      18.444165   20.114480   22.132640 N.4        1 MOL1        -0.5891
       2    H1      17.985424   20.605282   22.906909 H          1 MOL1         0.3726
       3    H2      17.778055   20.099061   21.354475 H          1 MOL1         0.3726
       4    H3      19.237493   20.689673   21.838315 H          1 MOL1         0.3726
       5    C1      18.879522   18.716984   22.529514 C.3        1 MOL1         0.0314
       6    H4      17.978314   18.173362   22.825884 H          1 MOL1         0.0999
       7    H5      19.532244   18.790753   23.403479 H          1 MOL1         0.0999
       8    C2      19.593964   17.932772   21.408714 C.3        1 MOL1        -0.1308
       9    H6      19.520335   16.863734   21.648677 H          1 MOL1         0.1025
      10    H7      19.060133   18.065530   20.458383 H          1 MOL1         0.1025
      11    C3      21.094781   18.280377   21.237183 C.3        1 MOL1        -0.1243
      12    H8      21.525604   17.595955   20.492905 H          1 MOL1         0.1025
      13    H9      21.629606   18.082963   22.176870 H          1 MOL1         0.1025
      14    C4      21.366656   19.733224   20.785299 C.3        1 MOL1        -0.2258
      15    H10     20.771909   19.993233   19.899961 H          1 MOL1         0.1036
      16    H11     22.425413   19.858478   20.523576 H          1 MOL1         0.1036
      17    H12     21.145593   20.450984   21.583818 H          1 MOL1         0.1036
@<TRIPOS>BOND
    1     1     2    1
    2     1     3    1
    3     1     4    1
    4     1     5    1
    5     5     6    1
    6     5     7    1
    7     5     8    1
    8     8     9    1
    9     8    10    1
   10     8    11    1
   11    11    12    1
   12    11    13    1
   13    11    14    1
   14    14    15    1
   15    14    16    1
   16    14    17    1
@<TRIPOS>SUBSTRUCTURE
       1 MOL1            1 RESIDUE      1      MOL     
@<SCITEGIC>MOL_PROPERTY
VConf Rank
SciTegic.value.IntegerValue
34

@<SCITEGIC>MOL_PROPERTY
Conf_Id
SciTegic.value.IntegerValue
44

@<SCITEGIC>MOL_PROPERTY
Delta U+W
SciTegic.value.DoubleValue
2.712

@<SCITEGIC>MOL_PROPERTY
U+W
SciTegic.value.DoubleValue
-13.153

@<SCITEGIC>MOL_PROPERTY
Grad RMS
SciTegic.value.DoubleValue
0.000000

@<SCITEGIC>MOL_PROPERTY
U
SciTegic.value.DoubleValue
47.423

@<SCITEGIC>MOL_PROPERTY
W
SciTegic.value.DoubleValue
-60.576

@<SCITEGIC>MOL_PROPERTY
W(PB)
SciTegic.value.DoubleValue
-62.262

@<SCITEGIC>MOL_PROPERTY
W(SA)
SciTegic.value.DoubleValue
1.687

@<SCITEGIC>MOL_PROPERTY
Valence
SciTegic.value.DoubleValue
2.414

@<SCITEGIC>MOL_PROPERTY
Coulomb
SciTegic.value.DoubleValue
44.831

@<SCITEGIC>MOL_PROPERTY
VdW
SciTegic.value.DoubleValue
0.178

@<SCITEGIC>MOL_PROPERTY
VdW6
SciTegic.value.DoubleValue
-3.743

@<SCITEGIC>MOL_PROPERTY
VdW12
SciTegic.value.DoubleValue
3.922

@<SCITEGIC>MOL_PROPERTY
Bond
SciTegic.value.DoubleValue
0.138

@<SCITEGIC>MOL_PROPERTY
Angle
SciTegic.value.DoubleValue
0.941

@<SCITEGIC>MOL_PROPERTY
Pdih
SciTegic.value.DoubleValue
1.335

@<SCITEGIC>MOL_PROPERTY
Idih
SciTegic.value.DoubleValue
0.000

@<SCITEGIC>MOL_PROPERTY
Tether
SciTegic.value.DoubleValue
0.000

@<TRIPOS>MOLECULE
guest-1_confgen4.mol2 : confsearch ligand conformer 35
          17          16           1
SMALL
USER_CHARGES
 
@<TRIPOS>ATOM
       1    N1      20.303862   17.188774   20.986716 N.4        1 MOL1        -0.5891
       2    H1      21.204744   17.635726   21.179305 H          1 MOL1         0.3726
       3    H2      20.219151   17.104098   19.969351 H          1 MOL1         0.3726
       4    H3      20.356355   16.236093   21.361298 H          1 MOL1         0.3726
       5    C1      19.150107   17.968292   21.587599 C.3        1 MOL1         0.0314
       6    H4      19.286639   17.995073   22.671779 H          1 MOL1         0.0999
       7    H5      18.229889   17.416771   21.376505 H          1 MOL1         0.0999
       8    C2      19.019885   19.406145   21.043961 C.3        1 MOL1        -0.1308
       9    H6      18.842492   19.367305   19.961015 H          1 MOL1         0.1025
      10    H7      18.126086   19.868290   21.483676 H          1 MOL1         0.1025
      11    C3      20.250298   20.302232   21.331481 C.3        1 MOL1        -0.1243
      12    H8      20.073323   21.296164   20.897106 H          1 MOL1         0.1025
      13    H9      21.136603   19.901858   20.820777 H          1 MOL1         0.1025
      14    C4      20.545606   20.459172   22.840773 C.3        1 MOL1        -0.2258
      15    H10     19.673534   20.859545   23.373934 H          1 MOL1         0.1036
      16    H11     21.381973   21.152198   22.999435 H          1 MOL1         0.1036
      17    H12     20.818095   19.501029   23.300838 H          1 MOL1         0.1036
@<TRIPOS>BOND
    1     1     2    1
    2     1     3    1
    3     1     4    1
    4     1     5    1
    5     5     6    1
    6     5     7    1
    7     5     8    1
    8     8     9    1
    9     8    10    1
   10     8    11    1
   11    11    12    1
   12    11    13    1
   13    11    14    1
   14    14    15    1
   15    14    16    1
   16    14    17    1
@<TRIPOS>SUBSTRUCTURE
       1 MOL1            1 RESIDUE      1      MOL     
@<SCITEGIC>MOL_PROPERTY
VConf Rank
SciTegic.value.IntegerValue
35

@<SCITEGIC>MOL_PROPERTY
Conf_Id
SciTegic.value.IntegerValue
1

@<SCITEGIC>MOL_PROPERTY
Delta U+W
SciTegic.value.DoubleValue
0.685

@<SCITEGIC>MOL_PROPERTY
U+W
SciTegic.value.DoubleValue
-15.179

@<SCITEGIC>MOL_PROPERTY
Grad RMS
SciTegic.value.DoubleValue
0.000000

@<SCITEGIC>MOL_PROPERTY
U
SciTegic.value.DoubleValue
45.697

@<SCITEGIC>MOL_PROPERTY
W
SciTegic.value.DoubleValue
-60.876

@<SCITEGIC>MOL_PROPERTY
W(PB)
SciTegic.value.DoubleValue
-62.586

@<SCITEGIC>MOL_PROPERTY
W(SA)
SciTegic.value.DoubleValue
1.710

@<SCITEGIC>MOL_PROPERTY
Valence
SciTegic.value.DoubleValue
1.263

@<SCITEGIC>MOL_PROPERTY
Coulomb
SciTegic.value.DoubleValue
44.179

@<SCITEGIC>MOL_PROPERTY
VdW
SciTegic.value.DoubleValue
0.255

@<SCITEGIC>MOL_PROPERTY
VdW6
SciTegic.value.DoubleValue
-3.552

@<SCITEGIC>MOL_PROPERTY
VdW12
SciTegic.value.DoubleValue
3.807

@<SCITEGIC>MOL_PROPERTY
Bond
SciTegic.value.DoubleValue
0.125

@<SCITEGIC>MOL_PROPERTY
Angle
SciTegic.value.DoubleValue
0.616

@<SCITEGIC>MOL_PROPERTY
Pdih
SciTegic.value.DoubleValue
0.521

@<SCITEGIC>MOL_PROPERTY
Idih
SciTegic.value.DoubleValue
0.000

@<SCITEGIC>MOL_PROPERTY
Tether
SciTegic.value.DoubleValue
0.000

@<TRIPOS>MOLECULE
guest-1_confgen4.mol2 : confsearch ligand conformer 36
          17          16           1
SMALL
USER_CHARGES
 
@<TRIPOS>ATOM
       1    N1      21.250266   20.393651   21.024007 N.4        1 MOL1        -0.5891
       2    H1      22.171736   19.977199   20.860180 H          1 MOL1         0.3726
       3    H2      21.138089   20.491524   22.037064 H          1 MOL1         0.3726
       4    H3      21.277990   21.340818   20.633144 H          1 MOL1         0.3726
       5    C1      20.137616   19.563769   20.413135 C.3        1 MOL1         0.0314
       6    H4      20.299930   19.533303   19.332273 H          1 MOL1         0.0999
       7    H5      19.190487   20.077137   20.598081 H          1 MOL1         0.0999
       8    C2      20.063673   18.122877   20.959289 C.3        1 MOL1        -0.1308
       9    H6      19.276804   17.581752   20.417235 H          1 MOL1         0.1025
      10    H7      21.003875   17.602869   20.732661 H          1 MOL1         0.1025
      11    C3      19.783827   18.039333   22.480560 C.3        1 MOL1        -0.1243
      12    H8      20.609777   18.496650   23.042096 H          1 MOL1         0.1025
      13    H9      19.763400   16.981765   22.778950 H          1 MOL1         0.1025
      14    C4      18.447761   18.701857   22.887728 C.3        1 MOL1        -0.2258
      15    H10     18.259669   18.561891   23.960108 H          1 MOL1         0.1036
      16    H11     17.605240   18.260271   22.339797 H          1 MOL1         0.1036
      17    H12     18.455847   19.781372   22.691433 H          1 MOL1         0.1036
@<TRIPOS>BOND
    1     1     2    1
    2     1     3    1
    3     1     4    1
    4     1     5    1
    5     5     6    1
    6     5     7    1
    7     5     8    1
    8     8     9    1
    9     8    10    1
   10     8    11    1
   11    11    12    1
   12    11    13    1
   13    11    14    1
   14    14    15    1
   15    14    16    1
   16    14    17    1
@<TRIPOS>SUBSTRUCTURE
       1 MOL1            1 RESIDUE      1      MOL     
@<SCITEGIC>MOL_PROPERTY
VConf Rank
SciTegic.value.IntegerValue
36

@<SCITEGIC>MOL_PROPERTY
Conf_Id
SciTegic.value.IntegerValue
43

@<SCITEGIC>MOL_PROPERTY
Delta U+W
SciTegic.value.DoubleValue
0.642

@<SCITEGIC>MOL_PROPERTY
U+W
SciTegic.value.DoubleValue
-15.222

@<SCITEGIC>MOL_PROPERTY
Grad RMS
SciTegic.value.DoubleValue
0.000000

@<SCITEGIC>MOL_PROPERTY
U
SciTegic.value.DoubleValue
45.697

@<SCITEGIC>MOL_PROPERTY
W
SciTegic.value.DoubleValue
-60.919

@<SCITEGIC>MOL_PROPERTY
W(PB)
SciTegic.value.DoubleValue
-62.631

@<SCITEGIC>MOL_PROPERTY
W(SA)
SciTegic.value.DoubleValue
1.712

@<SCITEGIC>MOL_PROPERTY
Valence
SciTegic.value.DoubleValue
1.262

@<SCITEGIC>MOL_PROPERTY
Coulomb
SciTegic.value.DoubleValue
44.179

@<SCITEGIC>MOL_PROPERTY
VdW
SciTegic.value.DoubleValue
0.255

@<SCITEGIC>MOL_PROPERTY
VdW6
SciTegic.value.DoubleValue
-3.552

@<SCITEGIC>MOL_PROPERTY
VdW12
SciTegic.value.DoubleValue
3.807

@<SCITEGIC>MOL_PROPERTY
Bond
SciTegic.value.DoubleValue
0.125

@<SCITEGIC>MOL_PROPERTY
Angle
SciTegic.value.DoubleValue
0.616

@<SCITEGIC>MOL_PROPERTY
Pdih
SciTegic.value.DoubleValue
0.521

@<SCITEGIC>MOL_PROPERTY
Idih
SciTegic.value.DoubleValue
0.000

@<SCITEGIC>MOL_PROPERTY
Tether
SciTegic.value.DoubleValue
0.000

@<TRIPOS>MOLECULE
guest-1_confgen4.mol2 : confsearch ligand conformer 37
          17          16           1
SMALL
USER_CHARGES
 
@<TRIPOS>ATOM
       1    N1      21.085234   16.794063   21.184806 N.4        1 MOL1        -0.5891
       2    H1      21.071542   16.825755   20.160841 H          1 MOL1         0.3726
       3    H2      20.303210   16.200510   21.477771 H          1 MOL1         0.3726
       4    H3      21.945165   16.305542   21.454573 H          1 MOL1         0.3726
       5    C1      21.007864   18.178491   21.796958 C.3        1 MOL1         0.0314
       6    H4      21.884675   18.742677   21.467684 H          1 MOL1         0.0999
       7    H5      21.058514   18.070340   22.883817 H          1 MOL1         0.0999
       8    C2      19.727199   18.941368   21.412020 C.3        1 MOL1        -0.1308
       9    H6      19.671987   19.034496   20.319194 H          1 MOL1         0.1025
      10    H7      18.848681   18.364553   21.730582 H          1 MOL1         0.1025
      11    C3      19.688325   20.344891   22.055552 C.3        1 MOL1        -0.1243
      12    H8      20.569205   20.921607   21.739678 H          1 MOL1         0.1025
      13    H9      19.746829   20.252487   23.149337 H          1 MOL1         0.1025
      14    C4      18.406401   21.116178   21.673793 C.3        1 MOL1        -0.2258
      15    H10     18.398062   22.109742   22.140493 H          1 MOL1         0.1036
      16    H11     17.508335   20.580301   22.007740 H          1 MOL1         0.1036
      17    H12     18.337180   21.254645   20.586943 H          1 MOL1         0.1036
@<TRIPOS>BOND
    1     1     2    1
    2     1     3    1
    3     1     4    1
    4     1     5    1
    5     5     6    1
    6     5     7    1
    7     5     8    1
    8     8     9    1
    9     8    10    1
   10     8    11    1
   11    11    12    1
   12    11    13    1
   13    11    14    1
   14    14    15    1
   15    14    16    1
   16    14    17    1
@<TRIPOS>SUBSTRUCTURE
       1 MOL1            1 RESIDUE      1      MOL     
@<SCITEGIC>MOL_PROPERTY
VConf Rank
SciTegic.value.IntegerValue
37

@<SCITEGIC>MOL_PROPERTY
Conf_Id
SciTegic.value.IntegerValue
7

@<SCITEGIC>MOL_PROPERTY
Delta U+W
SciTegic.value.DoubleValue
0.000

@<SCITEGIC>MOL_PROPERTY
U+W
SciTegic.value.DoubleValue
-15.865

@<SCITEGIC>MOL_PROPERTY
Grad RMS
SciTegic.value.DoubleValue
0.000000

@<SCITEGIC>MOL_PROPERTY
U
SciTegic.value.DoubleValue
44.664

@<SCITEGIC>MOL_PROPERTY
W
SciTegic.value.DoubleValue
-60.529

@<SCITEGIC>MOL_PROPERTY
W(PB)
SciTegic.value.DoubleValue
-62.309

@<SCITEGIC>MOL_PROPERTY
W(SA)
SciTegic.value.DoubleValue
1.780

@<SCITEGIC>MOL_PROPERTY
Valence
SciTegic.value.DoubleValue
0.872

@<SCITEGIC>MOL_PROPERTY
Coulomb
SciTegic.value.DoubleValue
43.648

@<SCITEGIC>MOL_PROPERTY
VdW
SciTegic.value.DoubleValue
0.144

@<SCITEGIC>MOL_PROPERTY
VdW6
SciTegic.value.DoubleValue
-2.370

@<SCITEGIC>MOL_PROPERTY
VdW12
SciTegic.value.DoubleValue
2.515

@<SCITEGIC>MOL_PROPERTY
Bond
SciTegic.value.DoubleValue
0.080

@<SCITEGIC>MOL_PROPERTY
Angle
SciTegic.value.DoubleValue
0.376

@<SCITEGIC>MOL_PROPERTY
Pdih
SciTegic.value.DoubleValue
0.416

@<SCITEGIC>MOL_PROPERTY
Idih
SciTegic.value.DoubleValue
0.000

@<SCITEGIC>MOL_PROPERTY
Tether
SciTegic.value.DoubleValue
0.000

@<TRIPOS>MOLECULE
guest-1_confgen4.mol2 : confsearch ligand conformer 38
          17          16           1
SMALL
USER_CHARGES
 
@<TRIPOS>ATOM
       1    N1      21.919250   19.410221   22.949232 N.4        1 MOL1        -0.5891
       2    H1      21.775314   18.973321   23.864682 H          1 MOL1         0.3726
       3    H2      21.839506   20.422782   23.083431 H          1 MOL1         0.3726
       4    H3      22.890596   19.222393   22.680807 H          1 MOL1         0.3726
       5    C1      20.938796   18.895855   21.914102 C.3        1 MOL1         0.0314
       6    H4      21.099867   17.820354   21.801133 H          1 MOL1         0.0999
       7    H5      21.171419   19.379365   20.961766 H          1 MOL1         0.0999
       8    C2      19.467695   19.162388   22.286633 C.3        1 MOL1        -0.1308
       9    H6      19.255580   18.706849   23.263039 H          1 MOL1         0.1025
      10    H7      19.306336   20.242482   22.401734 H          1 MOL1         0.1025
      11    C3      18.476293   18.598333   21.242137 C.3        1 MOL1        -0.1243
      12    H8      17.450212   18.749895   21.605684 H          1 MOL1         0.1025
      13    H9      18.613867   17.511702   21.150009 H          1 MOL1         0.1025
      14    C4      18.621549   19.259720   19.852380 C.3        1 MOL1        -0.2258
      15    H10     18.494252   20.348147   19.917563 H          1 MOL1         0.1036
      16    H11     17.860525   18.874543   19.161375 H          1 MOL1         0.1036
      17    H12     19.604325   19.055422   19.409093 H          1 MOL1         0.1036
@<TRIPOS>BOND
    1     1     2    1
    2     1     3    1
    3     1     4    1
    4     1     5    1
    5     5     6    1
    6     5     7    1
    7     5     8    1
    8     8     9    1
    9     8    10    1
   10     8    11    1
   11    11    12    1
   12    11    13    1
   13    11    14    1
   14    14    15    1
   15    14    16    1
   16    14    17    1
@<TRIPOS>SUBSTRUCTURE
       1 MOL1            1 RESIDUE      1      MOL     
@<SCITEGIC>MOL_PROPERTY
VConf Rank
SciTegic.value.IntegerValue
38

@<SCITEGIC>MOL_PROPERTY
Conf_Id
SciTegic.value.IntegerValue
36

@<SCITEGIC>MOL_PROPERTY
Delta U+W
SciTegic.value.DoubleValue
0.275

@<SCITEGIC>MOL_PROPERTY
U+W
SciTegic.value.DoubleValue
-15.590

@<SCITEGIC>MOL_PROPERTY
Grad RMS
SciTegic.value.DoubleValue
0.000000

@<SCITEGIC>MOL_PROPERTY
U
SciTegic.value.DoubleValue
45.174

@<SCITEGIC>MOL_PROPERTY
W
SciTegic.value.DoubleValue
-60.765

@<SCITEGIC>MOL_PROPERTY
W(PB)
SciTegic.value.DoubleValue
-62.518

@<SCITEGIC>MOL_PROPERTY
W(SA)
SciTegic.value.DoubleValue
1.754

@<SCITEGIC>MOL_PROPERTY
Valence
SciTegic.value.DoubleValue
1.161

@<SCITEGIC>MOL_PROPERTY
Coulomb
SciTegic.value.DoubleValue
43.789

@<SCITEGIC>MOL_PROPERTY
VdW
SciTegic.value.DoubleValue
0.224

@<SCITEGIC>MOL_PROPERTY
VdW6
SciTegic.value.DoubleValue
-2.897

@<SCITEGIC>MOL_PROPERTY
VdW12
SciTegic.value.DoubleValue
3.121

@<SCITEGIC>MOL_PROPERTY
Bond
SciTegic.value.DoubleValue
0.100

@<SCITEGIC>MOL_PROPERTY
Angle
SciTegic.value.DoubleValue
0.500

@<SCITEGIC>MOL_PROPERTY
Pdih
SciTegic.value.DoubleValue
0.561

@<SCITEGIC>MOL_PROPERTY
Idih
SciTegic.value.DoubleValue
0.000

@<SCITEGIC>MOL_PROPERTY
Tether
SciTegic.value.DoubleValue
0.000

@<TRIPOS>MOLECULE
guest-1_confgen4.mol2 : confsearch ligand conformer 39
          17          16           1
SMALL
USER_CHARGES
 
@<TRIPOS>ATOM
       1    N1      21.483497   19.725254   20.878094 N.4        1 MOL1        -0.5891
       2    H1      20.662303   19.954520   20.312477 H          1 MOL1         0.3726
       3    H2      21.969722   18.957109   20.405846 H          1 MOL1         0.3726
       4    H3      22.108800   20.536929   20.846451 H          1 MOL1         0.3726
       5    C1      21.102847   19.361449   22.300340 C.3        1 MOL1         0.0314
       6    H4      20.651433   20.236968   22.774674 H          1 MOL1         0.0999
       7    H5      22.030781   19.130736   22.830668 H          1 MOL1         0.0999
       8    C2      20.146544   18.155407   22.412412 C.3        1 MOL1        -0.1308
       9    H6      20.471516   17.354219   21.735494 H          1 MOL1         0.1025
      10    H7      20.239225   17.747785   23.427844 H          1 MOL1         0.1025
      11    C3      18.653603   18.494153   22.169340 C.3        1 MOL1        -0.1243
      12    H8      18.323662   19.251453   22.894362 H          1 MOL1         0.1025
      13    H9      18.056594   17.594895   22.376472 H          1 MOL1         0.1025
      14    C4      18.333197   18.978413   20.736960 C.3        1 MOL1        -0.2258
      15    H10     18.737655   19.980167   20.551004 H          1 MOL1         0.1036
      16    H11     17.246973   19.037024   20.589179 H          1 MOL1         0.1036
      17    H12     18.734848   18.288235   19.983644 H          1 MOL1         0.1036
@<TRIPOS>BOND
    1     1     2    1
    2     1     3    1
    3     1     4    1
    4     1     5    1
    5     5     6    1
    6     5     7    1
    7     5     8    1
    8     8     9    1
    9     8    10    1
   10     8    11    1
   11    11    12    1
   12    11    13    1
   13    11    14    1
   14    14    15    1
   15    14    16    1
   16    14    17    1
@<TRIPOS>SUBSTRUCTURE
       1 MOL1            1 RESIDUE      1      MOL     
@<SCITEGIC>MOL_PROPERTY
VConf Rank
SciTegic.value.IntegerValue
39

@<SCITEGIC>MOL_PROPERTY
Conf_Id
SciTegic.value.IntegerValue
19

@<SCITEGIC>MOL_PROPERTY
Delta U+W
SciTegic.value.DoubleValue
2.662

@<SCITEGIC>MOL_PROPERTY
U+W
SciTegic.value.DoubleValue
-13.203

@<SCITEGIC>MOL_PROPERTY
Grad RMS
SciTegic.value.DoubleValue
0.000000

@<SCITEGIC>MOL_PROPERTY
U
SciTegic.value.DoubleValue
47.423

@<SCITEGIC>MOL_PROPERTY
W
SciTegic.value.DoubleValue
-60.626

@<SCITEGIC>MOL_PROPERTY
W(PB)
SciTegic.value.DoubleValue
-62.328

@<SCITEGIC>MOL_PROPERTY
W(SA)
SciTegic.value.DoubleValue
1.702

@<SCITEGIC>MOL_PROPERTY
Valence
SciTegic.value.DoubleValue
2.414

@<SCITEGIC>MOL_PROPERTY
Coulomb
SciTegic.value.DoubleValue
44.831

@<SCITEGIC>MOL_PROPERTY
VdW
SciTegic.value.DoubleValue
0.178

@<SCITEGIC>MOL_PROPERTY
VdW6
SciTegic.value.DoubleValue
-3.743

@<SCITEGIC>MOL_PROPERTY
VdW12
SciTegic.value.DoubleValue
3.921

@<SCITEGIC>MOL_PROPERTY
Bond
SciTegic.value.DoubleValue
0.138

@<SCITEGIC>MOL_PROPERTY
Angle
SciTegic.value.DoubleValue
0.941

@<SCITEGIC>MOL_PROPERTY
Pdih
SciTegic.value.DoubleValue
1.335

@<SCITEGIC>MOL_PROPERTY
Idih
SciTegic.value.DoubleValue
0.000

@<SCITEGIC>MOL_PROPERTY
Tether
SciTegic.value.DoubleValue
0.000

@<TRIPOS>MOLECULE
guest-1_confgen4.mol2 : confsearch ligand conformer 40
          17          16           1
SMALL
USER_CHARGES
 
@<TRIPOS>ATOM
       1    N1      19.415261   19.984988   23.145024 N.4        1 MOL1        -0.5891
       2    H1      18.964552   20.816651   23.540021 H          1 MOL1         0.3726
       3    H2      19.921255   19.529495   23.910516 H          1 MOL1         0.3726
       4    H3      18.670052   19.346680   22.855077 H          1 MOL1         0.3726
       5    C1      20.335299   20.336019   21.991618 C.3        1 MOL1         0.0314
       6    H4      21.097287   21.014172   22.385343 H          1 MOL1         0.0999
       7    H5      19.757626   20.878005   21.238061 H          1 MOL1         0.0999
       8    C2      21.030749   19.120931   21.342369 C.3        1 MOL1        -0.1308
       9    H6      21.920773   19.487437   20.813809 H          1 MOL1         0.1025
      10    H7      21.401459   18.440408   22.120309 H          1 MOL1         0.1025
      11    C3      20.155392   18.348426   20.322718 C.3        1 MOL1        -0.1243
      12    H8      20.777090   17.576403   19.847889 H          1 MOL1         0.1025
      13    H9      19.843256   19.025965   19.515542 H          1 MOL1         0.1025
      14    C4      18.909642   17.669031   20.935426 C.3        1 MOL1        -0.2258
      15    H10     19.177242   17.057411   21.806898 H          1 MOL1         0.1036
      16    H11     18.435237   17.008364   20.198123 H          1 MOL1         0.1036
      17    H12     18.157038   18.406459   21.237861 H          1 MOL1         0.1036
@<TRIPOS>BOND
    1     1     2    1
    2     1     3    1
    3     1     4    1
    4     1     5    1
    5     5     6    1
    6     5     7    1
    7     5     8    1
    8     8     9    1
    9     8    10    1
   10     8    11    1
   11    11    12    1
   12    11    13    1
   13    11    14    1
   14    14    15    1
   15    14    16    1
   16    14    17    1
@<TRIPOS>SUBSTRUCTURE
       1 MOL1            1 RESIDUE      1      MOL     
@<SCITEGIC>MOL_PROPERTY
VConf Rank
SciTegic.value.IntegerValue
40

@<SCITEGIC>MOL_PROPERTY
Conf_Id
SciTegic.value.IntegerValue
44

@<SCITEGIC>MOL_PROPERTY
Delta U+W
SciTegic.value.DoubleValue
2.712

@<SCITEGIC>MOL_PROPERTY
U+W
SciTegic.value.DoubleValue
-13.153

@<SCITEGIC>MOL_PROPERTY
Grad RMS
SciTegic.value.DoubleValue
0.000000

@<SCITEGIC>MOL_PROPERTY
U
SciTegic.value.DoubleValue
47.423

@<SCITEGIC>MOL_PROPERTY
W
SciTegic.value.DoubleValue
-60.576

@<SCITEGIC>MOL_PROPERTY
W(PB)
SciTegic.value.DoubleValue
-62.262

@<SCITEGIC>MOL_PROPERTY
W(SA)
SciTegic.value.DoubleValue
1.687

@<SCITEGIC>MOL_PROPERTY
Valence
SciTegic.value.DoubleValue
2.414

@<SCITEGIC>MOL_PROPERTY
Coulomb
SciTegic.value.DoubleValue
44.831

@<SCITEGIC>MOL_PROPERTY
VdW
SciTegic.value.DoubleValue
0.178

@<SCITEGIC>MOL_PROPERTY
VdW6
SciTegic.value.DoubleValue
-3.743

@<SCITEGIC>MOL_PROPERTY
VdW12
SciTegic.value.DoubleValue
3.922

@<SCITEGIC>MOL_PROPERTY
Bond
SciTegic.value.DoubleValue
0.138

@<SCITEGIC>MOL_PROPERTY
Angle
SciTegic.value.DoubleValue
0.941

@<SCITEGIC>MOL_PROPERTY
Pdih
SciTegic.value.DoubleValue
1.335

@<SCITEGIC>MOL_PROPERTY
Idih
SciTegic.value.DoubleValue
0.000

@<SCITEGIC>MOL_PROPERTY
Tether
SciTegic.value.DoubleValue
0.000

@<TRIPOS>MOLECULE
guest-1_confgen4.mol2 : confsearch ligand conformer 41
          17          16           1
SMALL
USER_CHARGES
 
@<TRIPOS>ATOM
       1    N1      20.369566   18.189583   19.860910 N.4        1 MOL1        -0.5891
       2    H1      20.962210   17.752237   20.572210 H          1 MOL1         0.3726
       3    H2      20.972625   18.792299   19.293079 H          1 MOL1         0.3726
       4    H3      20.035746   17.439552   19.247163 H          1 MOL1         0.3726
       5    C1      19.222265   18.961975   20.482978 C.3        1 MOL1         0.0314
       6    H4      18.605411   18.257778   21.047251 H          1 MOL1         0.0999
       7    H5      18.614151   19.367400   19.669734 H          1 MOL1         0.0999
       8    C2      19.674142   20.112917   21.405507 C.3        1 MOL1        -0.1308
       9    H6      20.258551   20.835423   20.820529 H          1 MOL1         0.1025
      10    H7      18.784120   20.652165   21.756044 H          1 MOL1         0.1025
      11    C3      20.504294   19.650782   22.628959 C.3        1 MOL1        -0.1243
      12    H8      20.791629   20.534545   23.215734 H          1 MOL1         0.1025
      13    H9      21.443999   19.189992   22.295370 H          1 MOL1         0.1025
      14    C4      19.738497   18.667820   23.543912 C.3        1 MOL1        -0.2258
      15    H10     18.794335   19.106660   23.891827 H          1 MOL1         0.1036
      16    H11     20.338110   18.419096   24.429106 H          1 MOL1         0.1036
      17    H12     19.508989   17.728539   23.025236 H          1 MOL1         0.1036
@<TRIPOS>BOND
    1     1     2    1
    2     1     3    1
    3     1     4    1
    4     1     5    1
    5     5     6    1
    6     5     7    1
    7     5     8    1
    8     8     9    1
    9     8    10    1
   10     8    11    1
   11    11    12    1
   12    11    13    1
   13    11    14    1
   14    14    15    1
   15    14    16    1
   16    14    17    1
@<TRIPOS>SUBSTRUCTURE
       1 MOL1            1 RESIDUE      1      MOL     
@<SCITEGIC>MOL_PROPERTY
VConf Rank
SciTegic.value.IntegerValue
41

@<SCITEGIC>MOL_PROPERTY
Conf_Id
SciTegic.value.IntegerValue
1

@<SCITEGIC>MOL_PROPERTY
Delta U+W
SciTegic.value.DoubleValue
0.685

@<SCITEGIC>MOL_PROPERTY
U+W
SciTegic.value.DoubleValue
-15.179

@<SCITEGIC>MOL_PROPERTY
Grad RMS
SciTegic.value.DoubleValue
0.000000

@<SCITEGIC>MOL_PROPERTY
U
SciTegic.value.DoubleValue
45.697

@<SCITEGIC>MOL_PROPERTY
W
SciTegic.value.DoubleValue
-60.876

@<SCITEGIC>MOL_PROPERTY
W(PB)
SciTegic.value.DoubleValue
-62.586

@<SCITEGIC>MOL_PROPERTY
W(SA)
SciTegic.value.DoubleValue
1.710

@<SCITEGIC>MOL_PROPERTY
Valence
SciTegic.value.DoubleValue
1.263

@<SCITEGIC>MOL_PROPERTY
Coulomb
SciTegic.value.DoubleValue
44.179

@<SCITEGIC>MOL_PROPERTY
VdW
SciTegic.value.DoubleValue
0.255

@<SCITEGIC>MOL_PROPERTY
VdW6
SciTegic.value.DoubleValue
-3.552

@<SCITEGIC>MOL_PROPERTY
VdW12
SciTegic.value.DoubleValue
3.807

@<SCITEGIC>MOL_PROPERTY
Bond
SciTegic.value.DoubleValue
0.125

@<SCITEGIC>MOL_PROPERTY
Angle
SciTegic.value.DoubleValue
0.616

@<SCITEGIC>MOL_PROPERTY
Pdih
SciTegic.value.DoubleValue
0.521

@<SCITEGIC>MOL_PROPERTY
Idih
SciTegic.value.DoubleValue
0.000

@<SCITEGIC>MOL_PROPERTY
Tether
SciTegic.value.DoubleValue
0.000

@<TRIPOS>MOLECULE
guest-1_confgen4.mol2 : confsearch ligand conformer 42
          17          16           1
SMALL
USER_CHARGES
 
@<TRIPOS>ATOM
       1    N1      20.873376   20.245386   22.852187 N.4        1 MOL1        -0.5891
       2    H1      21.772960   19.854221   23.147340 H          1 MOL1         0.3726
       3    H2      20.144545   19.767629   23.389776 H          1 MOL1         0.3726
       4    H3      20.865626   21.227727   23.144785 H          1 MOL1         0.3726
       5    C1      20.656040   20.100111   21.358360 C.3        1 MOL1         0.0314
       6    H4      21.444386   20.662743   20.850922 H          1 MOL1         0.0999
       7    H5      19.697269   20.561686   21.108337 H          1 MOL1         0.0999
       8    C2      20.673875   18.638295   20.865718 C.3        1 MOL1        -0.1308
       9    H6      20.574435   18.634960   19.772144 H          1 MOL1         0.1025
      10    H7      21.654823   18.196117   21.084735 H          1 MOL1         0.1025
      11    C3      19.561866   17.752541   21.480887 C.3        1 MOL1        -0.1243
      12    H8      19.701961   17.670864   22.567329 H          1 MOL1         0.1025
      13    H9      19.662546   16.732328   21.084740 H          1 MOL1         0.1025
      14    C4      18.137482   18.270866   21.177129 C.3        1 MOL1        -0.2258
      15    H10     17.383233   17.579523   21.574772 H          1 MOL1         0.1036
      16    H11     17.972383   18.360187   20.095541 H          1 MOL1         0.1036
      17    H12     17.959181   19.252857   21.633037 H          1 MOL1         0.1036
@<TRIPOS>BOND
    1     1     2    1
    2     1     3    1
    3     1     4    1
    4     1     5    1
    5     5     6    1
    6     5     7    1
    7     5     8    1
    8     8     9    1
    9     8    10    1
   10     8    11    1
   11    11    12    1
   12    11    13    1
   13    11    14    1
   14    14    15    1
   15    14    16    1
   16    14    17    1
@<TRIPOS>SUBSTRUCTURE
       1 MOL1            1 RESIDUE      1      MOL     
@<SCITEGIC>MOL_PROPERTY
VConf Rank
SciTegic.value.IntegerValue
42

@<SCITEGIC>MOL_PROPERTY
Conf_Id
SciTegic.value.IntegerValue
43

@<SCITEGIC>MOL_PROPERTY
Delta U+W
SciTegic.value.DoubleValue
0.642

@<SCITEGIC>MOL_PROPERTY
U+W
SciTegic.value.DoubleValue
-15.222

@<SCITEGIC>MOL_PROPERTY
Grad RMS
SciTegic.value.DoubleValue
0.000000

@<SCITEGIC>MOL_PROPERTY
U
SciTegic.value.DoubleValue
45.697

@<SCITEGIC>MOL_PROPERTY
W
SciTegic.value.DoubleValue
-60.919

@<SCITEGIC>MOL_PROPERTY
W(PB)
SciTegic.value.DoubleValue
-62.631

@<SCITEGIC>MOL_PROPERTY
W(SA)
SciTegic.value.DoubleValue
1.712

@<SCITEGIC>MOL_PROPERTY
Valence
SciTegic.value.DoubleValue
1.262

@<SCITEGIC>MOL_PROPERTY
Coulomb
SciTegic.value.DoubleValue
44.179

@<SCITEGIC>MOL_PROPERTY
VdW
SciTegic.value.DoubleValue
0.255

@<SCITEGIC>MOL_PROPERTY
VdW6
SciTegic.value.DoubleValue
-3.552

@<SCITEGIC>MOL_PROPERTY
VdW12
SciTegic.value.DoubleValue
3.807

@<SCITEGIC>MOL_PROPERTY
Bond
SciTegic.value.DoubleValue
0.125

@<SCITEGIC>MOL_PROPERTY
Angle
SciTegic.value.DoubleValue
0.616

@<SCITEGIC>MOL_PROPERTY
Pdih
SciTegic.value.DoubleValue
0.521

@<SCITEGIC>MOL_PROPERTY
Idih
SciTegic.value.DoubleValue
0.000

@<SCITEGIC>MOL_PROPERTY
Tether
SciTegic.value.DoubleValue
0.000

@<TRIPOS>MOLECULE
guest-1_confgen4.mol2 : confsearch ligand conformer 43
          17          16           1
SMALL
USER_CHARGES
 
@<TRIPOS>ATOM
       1    N1      20.874732   19.235351   23.992890 N.4        1 MOL1        -0.5891
       2    H1      20.075076   19.724111   24.406845 H          1 MOL1         0.3726
       3    H2      21.594747   19.940210   23.807285 H          1 MOL1         0.3726
       4    H3      21.248792   18.613300   24.716796 H          1 MOL1         0.3726
       5    C1      20.488758   18.474241   22.740256 C.3        1 MOL1         0.0314
       6    H4      19.744225   17.723064   23.017615 H          1 MOL1         0.0999
       7    H5      21.378358   17.955400   22.372914 H          1 MOL1         0.0999
       8    C2      19.922426   19.379081   21.630844 C.3        1 MOL1        -0.1308
       9    H6      19.038393   19.910127   22.008292 H          1 MOL1         0.1025
      10    H7      20.666949   20.141563   21.365707 H          1 MOL1         0.1025
      11    C3      19.542319   18.565224   20.374391 C.3        1 MOL1        -0.1243
      12    H8      18.799533   17.799627   20.639827 H          1 MOL1         0.1025
      13    H9      20.426104   18.030840   19.997981 H          1 MOL1         0.1025
      14    C4      18.973355   19.466323   19.257138 C.3        1 MOL1        -0.2258
      15    H10     18.709716   18.869696   18.374200 H          1 MOL1         0.1036
      16    H11     19.707151   20.221240   18.945930 H          1 MOL1         0.1036
      17    H12     18.067771   19.988247   19.592873 H          1 MOL1         0.1036
@<TRIPOS>BOND
    1     1     2    1
    2     1     3    1
    3     1     4    1
    4     1     5    1
    5     5     6    1
    6     5     7    1
    7     5     8    1
    8     8     9    1
    9     8    10    1
   10     8    11    1
   11    11    12    1
   12    11    13    1
   13    11    14    1
   14    14    15    1
   15    14    16    1
   16    14    17    1
@<TRIPOS>SUBSTRUCTURE
       1 MOL1            1 RESIDUE      1      MOL     
@<SCITEGIC>MOL_PROPERTY
VConf Rank
SciTegic.value.IntegerValue
43

@<SCITEGIC>MOL_PROPERTY
Conf_Id
SciTegic.value.IntegerValue
7

@<SCITEGIC>MOL_PROPERTY
Delta U+W
SciTegic.value.DoubleValue
0.000

@<SCITEGIC>MOL_PROPERTY
U+W
SciTegic.value.DoubleValue
-15.865

@<SCITEGIC>MOL_PROPERTY
Grad RMS
SciTegic.value.DoubleValue
0.000000

@<SCITEGIC>MOL_PROPERTY
U
SciTegic.value.DoubleValue
44.664

@<SCITEGIC>MOL_PROPERTY
W
SciTegic.value.DoubleValue
-60.529

@<SCITEGIC>MOL_PROPERTY
W(PB)
SciTegic.value.DoubleValue
-62.309

@<SCITEGIC>MOL_PROPERTY
W(SA)
SciTegic.value.DoubleValue
1.780

@<SCITEGIC>MOL_PROPERTY
Valence
SciTegic.value.DoubleValue
0.872

@<SCITEGIC>MOL_PROPERTY
Coulomb
SciTegic.value.DoubleValue
43.648

@<SCITEGIC>MOL_PROPERTY
VdW
SciTegic.value.DoubleValue
0.144

@<SCITEGIC>MOL_PROPERTY
VdW6
SciTegic.value.DoubleValue
-2.370

@<SCITEGIC>MOL_PROPERTY
VdW12
SciTegic.value.DoubleValue
2.515

@<SCITEGIC>MOL_PROPERTY
Bond
SciTegic.value.DoubleValue
0.080

@<SCITEGIC>MOL_PROPERTY
Angle
SciTegic.value.DoubleValue
0.376

@<SCITEGIC>MOL_PROPERTY
Pdih
SciTegic.value.DoubleValue
0.416

@<SCITEGIC>MOL_PROPERTY
Idih
SciTegic.value.DoubleValue
0.000

@<SCITEGIC>MOL_PROPERTY
Tether
SciTegic.value.DoubleValue
0.000

@<TRIPOS>MOLECULE
guest-1_confgen4.mol2 : confsearch ligand conformer 44
          17          16           1
SMALL
USER_CHARGES
 
@<TRIPOS>ATOM
       1    N1      18.502727   19.827208   23.425876 N.4        1 MOL1        -0.5891
       2    H1      17.890059   19.051501   23.695250 H          1 MOL1         0.3726
       3    H2      17.931636   20.490470   22.893348 H          1 MOL1         0.3726
       4    H3      18.778045   20.301703   24.291843 H          1 MOL1         0.3726
       5    C1      19.706129   19.352445   22.636078 C.3        1 MOL1         0.0314
       6    H4      20.282533   18.675688   23.272605 H          1 MOL1         0.0999
       7    H5      20.326297   20.224343   22.412416 H          1 MOL1         0.0999
       8    C2      19.327543   18.634226   21.326577 C.3        1 MOL1        -0.1308
       9    H6      18.672306   17.784183   21.558889 H          1 MOL1         0.1025
      10    H7      18.747187   19.313408   20.687996 H          1 MOL1         0.1025
      11    C3      20.562192   18.120307   20.549701 C.3        1 MOL1        -0.1243
      12    H8      20.221094   17.551335   19.673400 H          1 MOL1         0.1025
      13    H9      21.126191   17.414469   21.175705 H          1 MOL1         0.1025
      14    C4      21.496796   19.258351   20.079246 C.3        1 MOL1        -0.2258
      15    H10     20.955505   19.981867   19.455826 H          1 MOL1         0.1036
      16    H11     22.324258   18.854572   19.481519 H          1 MOL1         0.1036
      17    H12     21.934885   19.797699   20.928524 H          1 MOL1         0.1036
@<TRIPOS>BOND
    1     1     2    1
    2     1     3    1
    3     1     4    1
    4     1     5    1
    5     5     6    1
    6     5     7    1
    7     5     8    1
    8     8     9    1
    9     8    10    1
   10     8    11    1
   11    11    12    1
   12    11    13    1
   13    11    14    1
   14    14    15    1
   15    14    16    1
   16    14    17    1
@<TRIPOS>SUBSTRUCTURE
       1 MOL1            1 RESIDUE      1      MOL     
@<SCITEGIC>MOL_PROPERTY
VConf Rank
SciTegic.value.IntegerValue
44

@<SCITEGIC>MOL_PROPERTY
Conf_Id
SciTegic.value.IntegerValue
36

@<SCITEGIC>MOL_PROPERTY
Delta U+W
SciTegic.value.DoubleValue
0.275

@<SCITEGIC>MOL_PROPERTY
U+W
SciTegic.value.DoubleValue
-15.590

@<SCITEGIC>MOL_PROPERTY
Grad RMS
SciTegic.value.DoubleValue
0.000000

@<SCITEGIC>MOL_PROPERTY
U
SciTegic.value.DoubleValue
45.174

@<SCITEGIC>MOL_PROPERTY
W
SciTegic.value.DoubleValue
-60.765

@<SCITEGIC>MOL_PROPERTY
W(PB)
SciTegic.value.DoubleValue
-62.518

@<SCITEGIC>MOL_PROPERTY
W(SA)
SciTegic.value.DoubleValue
1.754

@<SCITEGIC>MOL_PROPERTY
Valence
SciTegic.value.DoubleValue
1.161

@<SCITEGIC>MOL_PROPERTY
Coulomb
SciTegic.value.DoubleValue
43.789

@<SCITEGIC>MOL_PROPERTY
VdW
SciTegic.value.DoubleValue
0.224

@<SCITEGIC>MOL_PROPERTY
VdW6
SciTegic.value.DoubleValue
-2.897

@<SCITEGIC>MOL_PROPERTY
VdW12
SciTegic.value.DoubleValue
3.121

@<SCITEGIC>MOL_PROPERTY
Bond
SciTegic.value.DoubleValue
0.100

@<SCITEGIC>MOL_PROPERTY
Angle
SciTegic.value.DoubleValue
0.500

@<SCITEGIC>MOL_PROPERTY
Pdih
SciTegic.value.DoubleValue
0.561

@<SCITEGIC>MOL_PROPERTY
Idih
SciTegic.value.DoubleValue
0.000

@<SCITEGIC>MOL_PROPERTY
Tether
SciTegic.value.DoubleValue
0.000

@<TRIPOS>MOLECULE
guest-1_confgen4.mol2 : confsearch ligand conformer 45
          17          16           1
SMALL
USER_CHARGES
 
@<TRIPOS>ATOM
       1    N1      18.846431   17.877993   22.617350 N.4        1 MOL1        -0.5891
       2    H1      19.832638   17.627245   22.723962 H          1 MOL1         0.3726
       3    H2      18.434486   17.208099   21.960827 H          1 MOL1         0.3726
       4    H3      18.394784   17.721542   23.524191 H          1 MOL1         0.3726
       5    C1      18.678150   19.308492   22.142604 C.3        1 MOL1         0.0314
       6    H4      19.072943   19.978904   22.910711 H          1 MOL1         0.0999
       7    H5      17.603855   19.491737   22.054013 H          1 MOL1         0.0999
       8    C2      19.353130   19.611008   20.788168 C.3        1 MOL1        -0.1308
       9    H6      19.154081   18.796547   20.079111 H          1 MOL1         0.1025
      10    H7      18.871202   20.502655   20.365605 H          1 MOL1         0.1025
      11    C3      20.875522   19.888881   20.876562 C.3        1 MOL1        -0.1243
      12    H8      21.056807   20.746358   21.539805 H          1 MOL1         0.1025
      13    H9      21.229885   20.193965   19.881906 H          1 MOL1         0.1025
      14    C4      21.718645   18.683507   21.351009 C.3        1 MOL1        -0.2258
      15    H10     21.552068   18.469105   22.413064 H          1 MOL1         0.1036
      16    H11     22.788738   18.896197   21.229279 H          1 MOL1         0.1036
      17    H12     21.489832   17.782484   20.767094 H          1 MOL1         0.1036
@<TRIPOS>BOND
    1     1     2    1
    2     1     3    1
    3     1     4    1
    4     1     5    1
    5     5     6    1
    6     5     7    1
    7     5     8    1
    8     8     9    1
    9     8    10    1
   10     8    11    1
   11    11    12    1
   12    11    13    1
   13    11    14    1
   14    14    15    1
   15    14    16    1
   16    14    17    1
@<TRIPOS>SUBSTRUCTURE
       1 MOL1            1 RESIDUE      1      MOL     
@<SCITEGIC>MOL_PROPERTY
VConf Rank
SciTegic.value.IntegerValue
45

@<SCITEGIC>MOL_PROPERTY
Conf_Id
SciTegic.value.IntegerValue
19

@<SCITEGIC>MOL_PROPERTY
Delta U+W
SciTegic.value.DoubleValue
2.662

@<SCITEGIC>MOL_PROPERTY
U+W
SciTegic.value.DoubleValue
-13.203

@<SCITEGIC>MOL_PROPERTY
Grad RMS
SciTegic.value.DoubleValue
0.000000

@<SCITEGIC>MOL_PROPERTY
U
SciTegic.value.DoubleValue
47.423

@<SCITEGIC>MOL_PROPERTY
W
SciTegic.value.DoubleValue
-60.626

@<SCITEGIC>MOL_PROPERTY
W(PB)
SciTegic.value.DoubleValue
-62.328

@<SCITEGIC>MOL_PROPERTY
W(SA)
SciTegic.value.DoubleValue
1.702

@<SCITEGIC>MOL_PROPERTY
Valence
SciTegic.value.DoubleValue
2.414

@<SCITEGIC>MOL_PROPERTY
Coulomb
SciTegic.value.DoubleValue
44.831

@<SCITEGIC>MOL_PROPERTY
VdW
SciTegic.value.DoubleValue
0.178

@<SCITEGIC>MOL_PROPERTY
VdW6
SciTegic.value.DoubleValue
-3.743

@<SCITEGIC>MOL_PROPERTY
VdW12
SciTegic.value.DoubleValue
3.921

@<SCITEGIC>MOL_PROPERTY
Bond
SciTegic.value.DoubleValue
0.138

@<SCITEGIC>MOL_PROPERTY
Angle
SciTegic.value.DoubleValue
0.941

@<SCITEGIC>MOL_PROPERTY
Pdih
SciTegic.value.DoubleValue
1.335

@<SCITEGIC>MOL_PROPERTY
Idih
SciTegic.value.DoubleValue
0.000

@<SCITEGIC>MOL_PROPERTY
Tether
SciTegic.value.DoubleValue
0.000

@<TRIPOS>MOLECULE
guest-1_confgen4.mol2 : confsearch ligand conformer 46
          17          16           1
SMALL
USER_CHARGES
 
@<TRIPOS>ATOM
       1    N1      20.060316   17.458513   22.523930 N.4        1 MOL1        -0.5891
       2    H1      20.706583   16.758795   22.902821 H          1 MOL1         0.3726
       3    H2      19.121353   17.051452   22.570085 H          1 MOL1         0.3726
       4    H3      20.073275   18.258288   23.161923 H          1 MOL1         0.3726
       5    C1      20.430914   17.861463   21.109601 C.3        1 MOL1         0.0314
       6    H4      20.390816   16.955874   20.498178 H          1 MOL1         0.0999
       7    H5      21.462535   18.223486   21.109788 H          1 MOL1         0.0999
       8    C2      19.503246   18.927861   20.490056 C.3        1 MOL1        -0.1308
       9    H6      19.605109   18.866864   19.398383 H          1 MOL1         0.1025
      10    H7      18.454647   18.686190   20.708610 H          1 MOL1         0.1025
      11    C3      19.821526   20.383359   20.917756 C.3        1 MOL1        -0.1243
      12    H8      19.176571   21.062052   20.342082 H          1 MOL1         0.1025
      13    H9      20.854020   20.633874   20.636296 H          1 MOL1         0.1025
      14    C4      19.614874   20.666788   22.423027 C.3        1 MOL1        -0.2258
      15    H10     18.622221   20.338636   22.757852 H          1 MOL1         0.1036
      16    H11     19.694109   21.743517   22.621855 H          1 MOL1         0.1036
      17    H12     20.377099   20.169833   23.034361 H          1 MOL1         0.1036
@<TRIPOS>BOND
    1     1     2    1
    2     1     3    1
    3     1     4    1
    4     1     5    1
    5     5     6    1
    6     5     7    1
    7     5     8    1
    8     8     9    1
    9     8    10    1
   10     8    11    1
   11    11    12    1
   12    11    13    1
   13    11    14    1
   14    14    15    1
   15    14    16    1
   16    14    17    1
@<TRIPOS>SUBSTRUCTURE
       1 MOL1            1 RESIDUE      1      MOL     
@<SCITEGIC>MOL_PROPERTY
VConf Rank
SciTegic.value.IntegerValue
46

@<SCITEGIC>MOL_PROPERTY
Conf_Id
SciTegic.value.IntegerValue
44

@<SCITEGIC>MOL_PROPERTY
Delta U+W
SciTegic.value.DoubleValue
2.712

@<SCITEGIC>MOL_PROPERTY
U+W
SciTegic.value.DoubleValue
-13.153

@<SCITEGIC>MOL_PROPERTY
Grad RMS
SciTegic.value.DoubleValue
0.000000

@<SCITEGIC>MOL_PROPERTY
U
SciTegic.value.DoubleValue
47.423

@<SCITEGIC>MOL_PROPERTY
W
SciTegic.value.DoubleValue
-60.576

@<SCITEGIC>MOL_PROPERTY
W(PB)
SciTegic.value.DoubleValue
-62.262

@<SCITEGIC>MOL_PROPERTY
W(SA)
SciTegic.value.DoubleValue
1.687

@<SCITEGIC>MOL_PROPERTY
Valence
SciTegic.value.DoubleValue
2.414

@<SCITEGIC>MOL_PROPERTY
Coulomb
SciTegic.value.DoubleValue
44.831

@<SCITEGIC>MOL_PROPERTY
VdW
SciTegic.value.DoubleValue
0.178

@<SCITEGIC>MOL_PROPERTY
VdW6
SciTegic.value.DoubleValue
-3.743

@<SCITEGIC>MOL_PROPERTY
VdW12
SciTegic.value.DoubleValue
3.922

@<SCITEGIC>MOL_PROPERTY
Bond
SciTegic.value.DoubleValue
0.138

@<SCITEGIC>MOL_PROPERTY
Angle
SciTegic.value.DoubleValue
0.941

@<SCITEGIC>MOL_PROPERTY
Pdih
SciTegic.value.DoubleValue
1.335

@<SCITEGIC>MOL_PROPERTY
Idih
SciTegic.value.DoubleValue
0.000

@<SCITEGIC>MOL_PROPERTY
Tether
SciTegic.value.DoubleValue
0.000

@<TRIPOS>MOLECULE
guest-1_confgen4.mol2 : confsearch ligand conformer 47
          17          16           1
SMALL
USER_CHARGES
 
@<TRIPOS>ATOM
       1    N1      19.643138   18.692356   23.535605 N.4        1 MOL1        -0.5891
       2    H1      20.219226   17.927869   23.172108 H          1 MOL1         0.3726
       3    H2      18.711579   18.308259   23.720118 H          1 MOL1         0.3726
       4    H3      20.039327   18.960648   24.442094 H          1 MOL1         0.3726
       5    C1      19.591847   19.863597   22.573616 C.3        1 MOL1         0.0314
       6    H4      20.609252   20.241867   22.444763 H          1 MOL1         0.0999
       7    H5      18.994911   20.651888   23.040310 H          1 MOL1         0.0999
       8    C2      18.988866   19.513289   21.197528 C.3        1 MOL1        -0.1308
       9    H6      17.953743   19.173092   21.333674 H          1 MOL1         0.1025
      10    H7      18.932658   20.429669   20.595121 H          1 MOL1         0.1025
      11    C3      19.784704   18.438250   20.416191 C.3        1 MOL1        -0.1243
      12    H8      19.275201   18.245008   19.461745 H          1 MOL1         0.1025
      13    H9      19.772195   17.486445   20.964429 H          1 MOL1         0.1025
      14    C4      21.245584   18.855152   20.130149 C.3        1 MOL1        -0.2258
      15    H10     21.284588   19.804904   19.581043 H          1 MOL1         0.1036
      16    H11     21.750511   18.094975   19.520109 H          1 MOL1         0.1036
      17    H12     21.821312   18.971495   21.056944 H          1 MOL1         0.1036
@<TRIPOS>BOND
    1     1     2    1
    2     1     3    1
    3     1     4    1
    4     1     5    1
    5     5     6    1
    6     5     7    1
    7     5     8    1
    8     8     9    1
    9     8    10    1
   10     8    11    1
   11    11    12    1
   12    11    13    1
   13    11    14    1
   14    14    15    1
   15    14    16    1
   16    14    17    1
@<TRIPOS>SUBSTRUCTURE
       1 MOL1            1 RESIDUE      1      MOL     
@<SCITEGIC>MOL_PROPERTY
VConf Rank
SciTegic.value.IntegerValue
47

@<SCITEGIC>MOL_PROPERTY
Conf_Id
SciTegic.value.IntegerValue
1

@<SCITEGIC>MOL_PROPERTY
Delta U+W
SciTegic.value.DoubleValue
0.685

@<SCITEGIC>MOL_PROPERTY
U+W
SciTegic.value.DoubleValue
-15.179

@<SCITEGIC>MOL_PROPERTY
Grad RMS
SciTegic.value.DoubleValue
0.000000

@<SCITEGIC>MOL_PROPERTY
U
SciTegic.value.DoubleValue
45.697

@<SCITEGIC>MOL_PROPERTY
W
SciTegic.value.DoubleValue
-60.876

@<SCITEGIC>MOL_PROPERTY
W(PB)
SciTegic.value.DoubleValue
-62.586

@<SCITEGIC>MOL_PROPERTY
W(SA)
SciTegic.value.DoubleValue
1.710

@<SCITEGIC>MOL_PROPERTY
Valence
SciTegic.value.DoubleValue
1.263

@<SCITEGIC>MOL_PROPERTY
Coulomb
SciTegic.value.DoubleValue
44.179

@<SCITEGIC>MOL_PROPERTY
VdW
SciTegic.value.DoubleValue
0.255

@<SCITEGIC>MOL_PROPERTY
VdW6
SciTegic.value.DoubleValue
-3.552

@<SCITEGIC>MOL_PROPERTY
VdW12
SciTegic.value.DoubleValue
3.807

@<SCITEGIC>MOL_PROPERTY
Bond
SciTegic.value.DoubleValue
0.125

@<SCITEGIC>MOL_PROPERTY
Angle
SciTegic.value.DoubleValue
0.616

@<SCITEGIC>MOL_PROPERTY
Pdih
SciTegic.value.DoubleValue
0.521

@<SCITEGIC>MOL_PROPERTY
Idih
SciTegic.value.DoubleValue
0.000

@<SCITEGIC>MOL_PROPERTY
Tether
SciTegic.value.DoubleValue
0.000

@<TRIPOS>MOLECULE
guest-1_confgen4.mol2 : confsearch ligand conformer 48
          17          16           1
SMALL
USER_CHARGES
 
@<TRIPOS>ATOM
       1    N1      17.975234   18.665298   21.690836 N.4        1 MOL1        -0.5891
       2    H1      17.727469   18.156577   22.544764 H          1 MOL1         0.3726
       3    H2      18.378278   17.985573   21.039700 H          1 MOL1         0.3726
       4    H3      17.097875   18.994046   21.275103 H          1 MOL1         0.3726
       5    C1      18.930228   19.809593   21.970895 C.3        1 MOL1         0.0314
       6    H4      18.422754   20.510920   22.638838 H          1 MOL1         0.0999
       7    H5      19.128446   20.324942   21.027533 H          1 MOL1         0.0999
       8    C2      20.261889   19.366746   22.611586 C.3        1 MOL1        -0.1308
       9    H6      20.858144   20.261087   22.836172 H          1 MOL1         0.1025
      10    H7      20.055154   18.886828   23.577344 H          1 MOL1         0.1025
      11    C3      21.097142   18.406335   21.728680 C.3        1 MOL1        -0.1243
      12    H8      20.550268   17.466832   21.570824 H          1 MOL1         0.1025
      13    H9      22.014489   18.135779   22.270140 H          1 MOL1         0.1025
      14    C4      21.482535   19.020156   20.363216 C.3        1 MOL1        -0.2258
      15    H10     22.126551   18.332457   19.799938 H          1 MOL1         0.1036
      16    H11     22.032133   19.961288   20.494670 H          1 MOL1         0.1036
      17    H12     20.597400   19.223582   19.747503 H          1 MOL1         0.1036
@<TRIPOS>BOND
    1     1     2    1
    2     1     3    1
    3     1     4    1
    4     1     5    1
    5     5     6    1
    6     5     7    1
    7     5     8    1
    8     8     9    1
    9     8    10    1
   10     8    11    1
   11    11    12    1
   12    11    13    1
   13    11    14    1
   14    14    15    1
   15    14    16    1
   16    14    17    1
@<TRIPOS>SUBSTRUCTURE
       1 MOL1            1 RESIDUE      1      MOL     
@<SCITEGIC>MOL_PROPERTY
VConf Rank
SciTegic.value.IntegerValue
48

@<SCITEGIC>MOL_PROPERTY
Conf_Id
SciTegic.value.IntegerValue
43

@<SCITEGIC>MOL_PROPERTY
Delta U+W
SciTegic.value.DoubleValue
0.642

@<SCITEGIC>MOL_PROPERTY
U+W
SciTegic.value.DoubleValue
-15.222

@<SCITEGIC>MOL_PROPERTY
Grad RMS
SciTegic.value.DoubleValue
0.000000

@<SCITEGIC>MOL_PROPERTY
U
SciTegic.value.DoubleValue
45.697

@<SCITEGIC>MOL_PROPERTY
W
SciTegic.value.DoubleValue
-60.919

@<SCITEGIC>MOL_PROPERTY
W(PB)
SciTegic.value.DoubleValue
-62.631

@<SCITEGIC>MOL_PROPERTY
W(SA)
SciTegic.value.DoubleValue
1.712

@<SCITEGIC>MOL_PROPERTY
Valence
SciTegic.value.DoubleValue
1.262

@<SCITEGIC>MOL_PROPERTY
Coulomb
SciTegic.value.DoubleValue
44.179

@<SCITEGIC>MOL_PROPERTY
VdW
SciTegic.value.DoubleValue
0.255

@<SCITEGIC>MOL_PROPERTY
VdW6
SciTegic.value.DoubleValue
-3.552

@<SCITEGIC>MOL_PROPERTY
VdW12
SciTegic.value.DoubleValue
3.807

@<SCITEGIC>MOL_PROPERTY
Bond
SciTegic.value.DoubleValue
0.125

@<SCITEGIC>MOL_PROPERTY
Angle
SciTegic.value.DoubleValue
0.616

@<SCITEGIC>MOL_PROPERTY
Pdih
SciTegic.value.DoubleValue
0.521

@<SCITEGIC>MOL_PROPERTY
Idih
SciTegic.value.DoubleValue
0.000

@<SCITEGIC>MOL_PROPERTY
Tether
SciTegic.value.DoubleValue
0.000

@<TRIPOS>MOLECULE
guest-1_confgen4.mol2 : confsearch ligand conformer 49
          17          16           1
SMALL
USER_CHARGES
 
@<TRIPOS>ATOM
       1    N1      20.608040   20.679064   19.719574 N.4        1 MOL1        -0.5891
       2    H1      21.188638   20.028957   19.181093 H          1 MOL1         0.3726
       3    H2      21.243786   21.268613   20.265428 H          1 MOL1         0.3726
       4    H3      20.143664   21.292391   19.042009 H          1 MOL1         0.3726
       5    C1      19.609806   19.953622   20.599699 C.3        1 MOL1         0.0314
       6    H4      18.948459   19.372102   19.951643 H          1 MOL1         0.0999
       7    H5      19.007725   20.705138   21.117624 H          1 MOL1         0.0999
       8    C2      20.273946   19.022572   21.630390 C.3        1 MOL1        -0.1308
       9    H6      20.889961   18.278942   21.107387 H          1 MOL1         0.1025
      10    H7      20.948902   19.607407   22.269445 H          1 MOL1         0.1025
      11    C3      19.223224   18.304015   22.505135 C.3        1 MOL1        -0.1243
      12    H8      18.545250   17.721069   21.865720 H          1 MOL1         0.1025
      13    H9      18.604168   19.047898   23.026415 H          1 MOL1         0.1025
      14    C4      19.882119   17.368169   23.541476 C.3        1 MOL1        -0.2258
      15    H10     19.119524   16.867698   24.152234 H          1 MOL1         0.1036
      16    H11     20.540264   17.928627   24.218188 H          1 MOL1         0.1036
      17    H12     20.480931   16.591361   23.048321 H          1 MOL1         0.1036
@<TRIPOS>BOND
    1     1     2    1
    2     1     3    1
    3     1     4    1
    4     1     5    1
    5     5     6    1
    6     5     7    1
    7     5     8    1
    8     8     9    1
    9     8    10    1
   10     8    11    1
   11    11    12    1
   12    11    13    1
   13    11    14    1
   14    14    15    1
   15    14    16    1
   16    14    17    1
@<TRIPOS>SUBSTRUCTURE
       1 MOL1            1 RESIDUE      1      MOL     
@<SCITEGIC>MOL_PROPERTY
VConf Rank
SciTegic.value.IntegerValue
49

@<SCITEGIC>MOL_PROPERTY
Conf_Id
SciTegic.value.IntegerValue
7

@<SCITEGIC>MOL_PROPERTY
Delta U+W
SciTegic.value.DoubleValue
0.000

@<SCITEGIC>MOL_PROPERTY
U+W
SciTegic.value.DoubleValue
-15.865

@<SCITEGIC>MOL_PROPERTY
Grad RMS
SciTegic.value.DoubleValue
0.000000

@<SCITEGIC>MOL_PROPERTY
U
SciTegic.value.DoubleValue
44.664

@<SCITEGIC>MOL_PROPERTY
W
SciTegic.value.DoubleValue
-60.529

@<SCITEGIC>MOL_PROPERTY
W(PB)
SciTegic.value.DoubleValue
-62.309

@<SCITEGIC>MOL_PROPERTY
W(SA)
SciTegic.value.DoubleValue
1.780

@<SCITEGIC>MOL_PROPERTY
Valence
SciTegic.value.DoubleValue
0.872

@<SCITEGIC>MOL_PROPERTY
Coulomb
SciTegic.value.DoubleValue
43.648

@<SCITEGIC>MOL_PROPERTY
VdW
SciTegic.value.DoubleValue
0.144

@<SCITEGIC>MOL_PROPERTY
VdW6
SciTegic.value.DoubleValue
-2.370

@<SCITEGIC>MOL_PROPERTY
VdW12
SciTegic.value.DoubleValue
2.515

@<SCITEGIC>MOL_PROPERTY
Bond
SciTegic.value.DoubleValue
0.080

@<SCITEGIC>MOL_PROPERTY
Angle
SciTegic.value.DoubleValue
0.376

@<SCITEGIC>MOL_PROPERTY
Pdih
SciTegic.value.DoubleValue
0.416

@<SCITEGIC>MOL_PROPERTY
Idih
SciTegic.value.DoubleValue
0.000

@<SCITEGIC>MOL_PROPERTY
Tether
SciTegic.value.DoubleValue
0.000

@<TRIPOS>MOLECULE
guest-1_confgen4.mol2 : confsearch ligand conformer 50
          17          16           1
SMALL
USER_CHARGES
 
@<TRIPOS>ATOM
       1    N1      19.775763   16.912466   22.638139 N.4        1 MOL1        -0.5891
       2    H1      18.995398   16.913429   23.301975 H          1 MOL1         0.3726
       3    H2      20.638841   16.954033   23.188607 H          1 MOL1         0.3726
       4    H3      19.765946   16.000156   22.170765 H          1 MOL1         0.3726
       5    C1      19.679271   18.054862   21.646688 C.3        1 MOL1         0.0314
       6    H4      18.754473   17.930579   21.076855 H          1 MOL1         0.0999
       7    H5      20.521880   17.971626   20.955371 H          1 MOL1         0.0999
       8    C2      19.691725   19.442314   22.316600 C.3        1 MOL1        -0.1308
       9    H6      18.865821   19.501002   23.037929 H          1 MOL1         0.1025
      10    H7      20.619818   19.566468   22.890287 H          1 MOL1         0.1025
      11    C3      19.553233   20.597783   21.297916 C.3        1 MOL1        -0.1243
      12    H8      19.488176   21.549307   21.844131 H          1 MOL1         0.1025
      13    H9      18.608522   20.493493   20.745805 H          1 MOL1         0.1025
      14    C4      20.732334   20.668635   20.300591 C.3        1 MOL1        -0.2258
      15    H10     21.690256   20.767107   20.827671 H          1 MOL1         0.1036
      16    H11     20.624208   21.536995   19.637817 H          1 MOL1         0.1036
      17    H12     20.779717   19.773518   19.667652 H          1 MOL1         0.1036
@<TRIPOS>BOND
    1     1     2    1
    2     1     3    1
    3     1     4    1
    4     1     5    1
    5     5     6    1
    6     5     7    1
    7     5     8    1
    8     8     9    1
    9     8    10    1
   10     8    11    1
   11    11    12    1
   12    11    13    1
   13    11    14    1
   14    14    15    1
   15    14    16    1
   16    14    17    1
@<TRIPOS>SUBSTRUCTURE
       1 MOL1            1 RESIDUE      1      MOL     
@<SCITEGIC>MOL_PROPERTY
VConf Rank
SciTegic.value.IntegerValue
50

@<SCITEGIC>MOL_PROPERTY
Conf_Id
SciTegic.value.IntegerValue
36

@<SCITEGIC>MOL_PROPERTY
Delta U+W
SciTegic.value.DoubleValue
0.275

@<SCITEGIC>MOL_PROPERTY
U+W
SciTegic.value.DoubleValue
-15.590

@<SCITEGIC>MOL_PROPERTY
Grad RMS
SciTegic.value.DoubleValue
0.000000

@<SCITEGIC>MOL_PROPERTY
U
SciTegic.value.DoubleValue
45.174

@<SCITEGIC>MOL_PROPERTY
W
SciTegic.value.DoubleValue
-60.765

@<SCITEGIC>MOL_PROPERTY
W(PB)
SciTegic.value.DoubleValue
-62.518

@<SCITEGIC>MOL_PROPERTY
W(SA)
SciTegic.value.DoubleValue
1.754

@<SCITEGIC>MOL_PROPERTY
Valence
SciTegic.value.DoubleValue
1.161

@<SCITEGIC>MOL_PROPERTY
Coulomb
SciTegic.value.DoubleValue
43.789

@<SCITEGIC>MOL_PROPERTY
VdW
SciTegic.value.DoubleValue
0.224

@<SCITEGIC>MOL_PROPERTY
VdW6
SciTegic.value.DoubleValue
-2.897

@<SCITEGIC>MOL_PROPERTY
VdW12
SciTegic.value.DoubleValue
3.121

@<SCITEGIC>MOL_PROPERTY
Bond
SciTegic.value.DoubleValue
0.100

@<SCITEGIC>MOL_PROPERTY
Angle
SciTegic.value.DoubleValue
0.500

@<SCITEGIC>MOL_PROPERTY
Pdih
SciTegic.value.DoubleValue
0.561

@<SCITEGIC>MOL_PROPERTY
Idih
SciTegic.value.DoubleValue
0.000

@<SCITEGIC>MOL_PROPERTY
Tether
SciTegic.value.DoubleValue
0.000

@<TRIPOS>MOLECULE
guest-1_confgen4.mol2 : confsearch ligand conformer 51
          17          16           1
SMALL
USER_CHARGES
 
@<TRIPOS>ATOM
       1    N1      21.670126   19.127218   20.940645 N.4        1 MOL1        -0.5891
       2    H1      21.485029   18.187915   21.301606 H          1 MOL1         0.3726
       3    H2      22.207123   19.624945   21.657152 H          1 MOL1         0.3726
       4    H3      22.285126   19.022934   20.127182 H          1 MOL1         0.3726
       5    C1      20.388121   19.857072   20.588781 C.3        1 MOL1         0.0314
       6    H4      19.893383   19.319325   19.775538 H          1 MOL1         0.0999
       7    H5      20.674206   20.844369   20.216038 H          1 MOL1         0.0999
       8    C2      19.411372   20.029681   21.771058 C.3        1 MOL1        -0.1308
       9    H6      19.960785   20.338941   22.670075 H          1 MOL1         0.1025
      10    H7      18.736730   20.861710   21.529328 H          1 MOL1         0.1025
      11    C3      18.541210   18.782985   22.073173 C.3        1 MOL1        -0.1243
      12    H8      17.948834   18.521697   21.185007 H          1 MOL1         0.1025
      13    H9      17.815658   19.048623   22.854838 H          1 MOL1         0.1025
      14    C4      19.339114   17.545246   22.542466 C.3        1 MOL1        -0.2258
      15    H10     19.927625   17.112330   21.725206 H          1 MOL1         0.1036
      16    H11     18.654807   16.763067   22.896127 H          1 MOL1         0.1036
      17    H12     20.013951   17.796658   23.371043 H          1 MOL1         0.1036
@<TRIPOS>BOND
    1     1     2    1
    2     1     3    1
    3     1     4    1
    4     1     5    1
    5     5     6    1
    6     5     7    1
    7     5     8    1
    8     8     9    1
    9     8    10    1
   10     8    11    1
   11    11    12    1
   12    11    13    1
   13    11    14    1
   14    14    15    1
   15    14    16    1
   16    14    17    1
@<TRIPOS>SUBSTRUCTURE
       1 MOL1            1 RESIDUE      1      MOL     
@<SCITEGIC>MOL_PROPERTY
VConf Rank
SciTegic.value.IntegerValue
51

@<SCITEGIC>MOL_PROPERTY
Conf_Id
SciTegic.value.IntegerValue
19

@<SCITEGIC>MOL_PROPERTY
Delta U+W
SciTegic.value.DoubleValue
2.662

@<SCITEGIC>MOL_PROPERTY
U+W
SciTegic.value.DoubleValue
-13.203

@<SCITEGIC>MOL_PROPERTY
Grad RMS
SciTegic.value.DoubleValue
0.000000

@<SCITEGIC>MOL_PROPERTY
U
SciTegic.value.DoubleValue
47.423

@<SCITEGIC>MOL_PROPERTY
W
SciTegic.value.DoubleValue
-60.626

@<SCITEGIC>MOL_PROPERTY
W(PB)
SciTegic.value.DoubleValue
-62.328

@<SCITEGIC>MOL_PROPERTY
W(SA)
SciTegic.value.DoubleValue
1.702

@<SCITEGIC>MOL_PROPERTY
Valence
SciTegic.value.DoubleValue
2.414

@<SCITEGIC>MOL_PROPERTY
Coulomb
SciTegic.value.DoubleValue
44.831

@<SCITEGIC>MOL_PROPERTY
VdW
SciTegic.value.DoubleValue
0.178

@<SCITEGIC>MOL_PROPERTY
VdW6
SciTegic.value.DoubleValue
-3.743

@<SCITEGIC>MOL_PROPERTY
VdW12
SciTegic.value.DoubleValue
3.921

@<SCITEGIC>MOL_PROPERTY
Bond
SciTegic.value.DoubleValue
0.138

@<SCITEGIC>MOL_PROPERTY
Angle
SciTegic.value.DoubleValue
0.941

@<SCITEGIC>MOL_PROPERTY
Pdih
SciTegic.value.DoubleValue
1.335

@<SCITEGIC>MOL_PROPERTY
Idih
SciTegic.value.DoubleValue
0.000

@<SCITEGIC>MOL_PROPERTY
Tether
SciTegic.value.DoubleValue
0.000

@<TRIPOS>MOLECULE
guest-1_confgen4.mol2 : confsearch ligand conformer 52
          17          16           1
SMALL
USER_CHARGES
 
@<TRIPOS>ATOM
       1    N1      21.699113   18.906608   21.248461 N.4        1 MOL1        -0.5891
       2    H1      22.565205   19.394197   20.997532 H          1 MOL1         0.3726
       3    H2      21.884740   17.903593   21.153680 H          1 MOL1         0.3726
       4    H3      21.526856   19.088338   22.240502 H          1 MOL1         0.3726
       5    C1      20.532851   19.347886   20.385241 C.3        1 MOL1         0.0314
       6    H4      20.796583   19.117653   19.349396 H          1 MOL1         0.0999
       7    H5      20.425267   20.432303   20.473365 H          1 MOL1         0.0999
       8    C2      19.194230   18.660636   20.727867 C.3        1 MOL1        -0.1308
       9    H6      18.540719   18.743551   19.849292 H          1 MOL1         0.1025
      10    H7      19.353279   17.585503   20.884459 H          1 MOL1         0.1025
      11    C3      18.446533   19.276899   21.937774 C.3        1 MOL1        -0.1243
      12    H8      17.467415   18.785491   22.026290 H          1 MOL1         0.1025
      13    H9      18.237269   20.337895   21.741517 H          1 MOL1         0.1025
      14    C4      19.189866   19.139380   23.285893 C.3        1 MOL1        -0.2258
      15    H10     19.497691   18.101360   23.467304 H          1 MOL1         0.1036
      16    H11     18.535542   19.442055   24.113784 H          1 MOL1         0.1036
      17    H12     20.076050   19.783497   23.324246 H          1 MOL1         0.1036
@<TRIPOS>BOND
    1     1     2    1
    2     1     3    1
    3     1     4    1
    4     1     5    1
    5     5     6    1
    6     5     7    1
    7     5     8    1
    8     8     9    1
    9     8    10    1
   10     8    11    1
   11    11    12    1
   12    11    13    1
   13    11    14    1
   14    14    15    1
   15    14    16    1
   16    14    17    1
@<TRIPOS>SUBSTRUCTURE
       1 MOL1            1 RESIDUE      1      MOL     
@<SCITEGIC>MOL_PROPERTY
VConf Rank
SciTegic.value.IntegerValue
52

@<SCITEGIC>MOL_PROPERTY
Conf_Id
SciTegic.value.IntegerValue
44

@<SCITEGIC>MOL_PROPERTY
Delta U+W
SciTegic.value.DoubleValue
2.712

@<SCITEGIC>MOL_PROPERTY
U+W
SciTegic.value.DoubleValue
-13.153

@<SCITEGIC>MOL_PROPERTY
Grad RMS
SciTegic.value.DoubleValue
0.000000

@<SCITEGIC>MOL_PROPERTY
U
SciTegic.value.DoubleValue
47.423

@<SCITEGIC>MOL_PROPERTY
W
SciTegic.value.DoubleValue
-60.576

@<SCITEGIC>MOL_PROPERTY
W(PB)
SciTegic.value.DoubleValue
-62.262

@<SCITEGIC>MOL_PROPERTY
W(SA)
SciTegic.value.DoubleValue
1.687

@<SCITEGIC>MOL_PROPERTY
Valence
SciTegic.value.DoubleValue
2.414

@<SCITEGIC>MOL_PROPERTY
Coulomb
SciTegic.value.DoubleValue
44.831

@<SCITEGIC>MOL_PROPERTY
VdW
SciTegic.value.DoubleValue
0.178

@<SCITEGIC>MOL_PROPERTY
VdW6
SciTegic.value.DoubleValue
-3.743

@<SCITEGIC>MOL_PROPERTY
VdW12
SciTegic.value.DoubleValue
3.922

@<SCITEGIC>MOL_PROPERTY
Bond
SciTegic.value.DoubleValue
0.138

@<SCITEGIC>MOL_PROPERTY
Angle
SciTegic.value.DoubleValue
0.941

@<SCITEGIC>MOL_PROPERTY
Pdih
SciTegic.value.DoubleValue
1.335

@<SCITEGIC>MOL_PROPERTY
Idih
SciTegic.value.DoubleValue
0.000

@<SCITEGIC>MOL_PROPERTY
Tether
SciTegic.value.DoubleValue
0.000

@<TRIPOS>MOLECULE
guest-1_confgen4.mol2 : confsearch ligand conformer 53
          17          16           1
SMALL
USER_CHARGES
 
@<TRIPOS>ATOM
       1    N1      20.285956   18.256101   19.810737 N.4        1 MOL1        -0.5891
       2    H1      21.077548   18.863030   20.041960 H          1 MOL1         0.3726
       3    H2      19.748016   18.726431   19.076715 H          1 MOL1         0.3726
       4    H3      20.674165   17.403317   19.395139 H          1 MOL1         0.3726
       5    C1      19.435636   17.953056   21.029334 C.3        1 MOL1         0.0314
       6    H4      20.059971   17.427997   21.756880 H          1 MOL1         0.0999
       7    H5      18.636857   17.274592   20.717599 H          1 MOL1         0.0999
       8    C2      18.815867   19.205315   21.683286 C.3        1 MOL1        -0.1308
       9    H6      18.158892   19.703039   20.957748 H          1 MOL1         0.1025
      10    H7      18.169724   18.885654   22.511609 H          1 MOL1         0.1025
      11    C3      19.858695   20.220666   22.213503 C.3        1 MOL1        -0.1243
      12    H8      19.327486   21.080240   22.645770 H          1 MOL1         0.1025
      13    H9      20.454119   20.619845   21.381169 H          1 MOL1         0.1025
      14    C4      20.797932   19.620416   23.284639 C.3        1 MOL1        -0.2258
      15    H10     20.225396   19.215054   24.129004 H          1 MOL1         0.1036
      16    H11     21.474807   20.389882   23.677997 H          1 MOL1         0.1036
      17    H12     21.417576   18.814128   22.872462 H          1 MOL1         0.1036
@<TRIPOS>BOND
    1     1     2    1
    2     1     3    1
    3     1     4    1
    4     1     5    1
    5     5     6    1
    6     5     7    1
    7     5     8    1
    8     8     9    1
    9     8    10    1
   10     8    11    1
   11    11    12    1
   12    11    13    1
   13    11    14    1
   14    14    15    1
   15    14    16    1
   16    14    17    1
@<TRIPOS>SUBSTRUCTURE
       1 MOL1            1 RESIDUE      1      MOL     
@<SCITEGIC>MOL_PROPERTY
VConf Rank
SciTegic.value.IntegerValue
53

@<SCITEGIC>MOL_PROPERTY
Conf_Id
SciTegic.value.IntegerValue
1

@<SCITEGIC>MOL_PROPERTY
Delta U+W
SciTegic.value.DoubleValue
0.685

@<SCITEGIC>MOL_PROPERTY
U+W
SciTegic.value.DoubleValue
-15.179

@<SCITEGIC>MOL_PROPERTY
Grad RMS
SciTegic.value.DoubleValue
0.000000

@<SCITEGIC>MOL_PROPERTY
U
SciTegic.value.DoubleValue
45.697

@<SCITEGIC>MOL_PROPERTY
W
SciTegic.value.DoubleValue
-60.876

@<SCITEGIC>MOL_PROPERTY
W(PB)
SciTegic.value.DoubleValue
-62.586

@<SCITEGIC>MOL_PROPERTY
W(SA)
SciTegic.value.DoubleValue
1.710

@<SCITEGIC>MOL_PROPERTY
Valence
SciTegic.value.DoubleValue
1.263

@<SCITEGIC>MOL_PROPERTY
Coulomb
SciTegic.value.DoubleValue
44.179

@<SCITEGIC>MOL_PROPERTY
VdW
SciTegic.value.DoubleValue
0.255

@<SCITEGIC>MOL_PROPERTY
VdW6
SciTegic.value.DoubleValue
-3.552

@<SCITEGIC>MOL_PROPERTY
VdW12
SciTegic.value.DoubleValue
3.807

@<SCITEGIC>MOL_PROPERTY
Bond
SciTegic.value.DoubleValue
0.125

@<SCITEGIC>MOL_PROPERTY
Angle
SciTegic.value.DoubleValue
0.616

@<SCITEGIC>MOL_PROPERTY
Pdih
SciTegic.value.DoubleValue
0.521

@<SCITEGIC>MOL_PROPERTY
Idih
SciTegic.value.DoubleValue
0.000

@<SCITEGIC>MOL_PROPERTY
Tether
SciTegic.value.DoubleValue
0.000

@<TRIPOS>MOLECULE
guest-1_confgen4.mol2 : confsearch ligand conformer 54
          17          16           1
SMALL
USER_CHARGES
 
@<TRIPOS>ATOM
       1    N1      18.751895   20.465642   22.310842 N.4        1 MOL1        -0.5891
       2    H1      19.043422   21.389377   21.977520 H          1 MOL1         0.3726
       3    H2      19.392458   20.199581   23.064061 H          1 MOL1         0.3726
       4    H3      17.824923   20.580478   22.732982 H          1 MOL1         0.3726
       5    C1      18.740053   19.439146   21.194588 C.3        1 MOL1         0.0314
       6    H4      18.011359   19.767174   20.448304 H          1 MOL1         0.0999
       7    H5      18.393508   18.489491   21.610362 H          1 MOL1         0.0999
       8    C2      20.111457   19.240644   20.516525 C.3        1 MOL1        -0.1308
       9    H6      19.993078   18.533149   19.685116 H          1 MOL1         0.1025
      10    H7      20.431918   20.189775   20.066856 H          1 MOL1         0.1025
      11    C3      21.217267   18.724677   21.470736 C.3        1 MOL1        -0.1243
      12    H8      21.412384   19.465374   22.258106 H          1 MOL1         0.1025
      13    H9      22.155204   18.628384   20.906017 H          1 MOL1         0.1025
      14    C4      20.875201   17.360504   22.112470 C.3        1 MOL1        -0.2258
      15    H10     21.711717   17.003582   22.727136 H          1 MOL1         0.1036
      16    H11     20.676774   16.601762   21.344352 H          1 MOL1         0.1036
      17    H12     19.993368   17.429298   22.761768 H          1 MOL1         0.1036
@<TRIPOS>BOND
    1     1     2    1
    2     1     3    1
    3     1     4    1
    4     1     5    1
    5     5     6    1
    6     5     7    1
    7     5     8    1
    8     8     9    1
    9     8    10    1
   10     8    11    1
   11    11    12    1
   12    11    13    1
   13    11    14    1
   14    14    15    1
   15    14    16    1
   16    14    17    1
@<TRIPOS>SUBSTRUCTURE
       1 MOL1            1 RESIDUE      1      MOL     
@<SCITEGIC>MOL_PROPERTY
VConf Rank
SciTegic.value.IntegerValue
54

@<SCITEGIC>MOL_PROPERTY
Conf_Id
SciTegic.value.IntegerValue
43

@<SCITEGIC>MOL_PROPERTY
Delta U+W
SciTegic.value.DoubleValue
0.642

@<SCITEGIC>MOL_PROPERTY
U+W
SciTegic.value.DoubleValue
-15.222

@<SCITEGIC>MOL_PROPERTY
Grad RMS
SciTegic.value.DoubleValue
0.000000

@<SCITEGIC>MOL_PROPERTY
U
SciTegic.value.DoubleValue
45.697

@<SCITEGIC>MOL_PROPERTY
W
SciTegic.value.DoubleValue
-60.919

@<SCITEGIC>MOL_PROPERTY
W(PB)
SciTegic.value.DoubleValue
-62.631

@<SCITEGIC>MOL_PROPERTY
W(SA)
SciTegic.value.DoubleValue
1.712

@<SCITEGIC>MOL_PROPERTY
Valence
SciTegic.value.DoubleValue
1.262

@<SCITEGIC>MOL_PROPERTY
Coulomb
SciTegic.value.DoubleValue
44.179

@<SCITEGIC>MOL_PROPERTY
VdW
SciTegic.value.DoubleValue
0.255

@<SCITEGIC>MOL_PROPERTY
VdW6
SciTegic.value.DoubleValue
-3.552

@<SCITEGIC>MOL_PROPERTY
VdW12
SciTegic.value.DoubleValue
3.807

@<SCITEGIC>MOL_PROPERTY
Bond
SciTegic.value.DoubleValue
0.125

@<SCITEGIC>MOL_PROPERTY
Angle
SciTegic.value.DoubleValue
0.616

@<SCITEGIC>MOL_PROPERTY
Pdih
SciTegic.value.DoubleValue
0.521

@<SCITEGIC>MOL_PROPERTY
Idih
SciTegic.value.DoubleValue
0.000

@<SCITEGIC>MOL_PROPERTY
Tether
SciTegic.value.DoubleValue
0.000

@<TRIPOS>MOLECULE
guest-1_confgen4.mol2 : confsearch ligand conformer 55
          17          16           1
SMALL
USER_CHARGES
 
@<TRIPOS>ATOM
       1    N1      21.149004   19.451827   19.363518 N.4        1 MOL1        -0.5891
       2    H1      20.386298   19.145635   18.751782 H          1 MOL1         0.3726
       3    H2      21.812568   18.673965   19.429167 H          1 MOL1         0.3726
       4    H3      21.632326   20.213143   18.875966 H          1 MOL1         0.3726
       5    C1      20.645312   19.885181   20.725816 C.3        1 MOL1         0.0314
       6    H4      19.970362   20.733298   20.582064 H          1 MOL1         0.0999
       7    H5      21.504063   20.226145   21.310464 H          1 MOL1         0.0999
       8    C2      19.913414   18.764622   21.486692 C.3        1 MOL1        -0.1308
       9    H6      19.060917   18.414149   20.889693 H          1 MOL1         0.1025
      10    H7      20.589378   17.908809   21.615716 H          1 MOL1         0.1025
      11    C3      19.417189   19.247352   22.867364 C.3        1 MOL1        -0.1243
      12    H8      18.743108   20.106119   22.739070 H          1 MOL1         0.1025
      13    H9      20.269699   19.601326   23.464235 H          1 MOL1         0.1025
      14    C4      18.681883   18.128535   23.636473 C.3        1 MOL1        -0.2258
      15    H10     18.337605   18.491307   24.613672 H          1 MOL1         0.1036
      16    H11     19.341946   17.268747   23.810509 H          1 MOL1         0.1036
      17    H12     17.803336   17.777487   23.079581 H          1 MOL1         0.1036
@<TRIPOS>BOND
    1     1     2    1
    2     1     3    1
    3     1     4    1
    4     1     5    1
    5     5     6    1
    6     5     7    1
    7     5     8    1
    8     8     9    1
    9     8    10    1
   10     8    11    1
   11    11    12    1
   12    11    13    1
   13    11    14    1
   14    14    15    1
   15    14    16    1
   16    14    17    1
@<TRIPOS>SUBSTRUCTURE
       1 MOL1            1 RESIDUE      1      MOL     
@<SCITEGIC>MOL_PROPERTY
VConf Rank
SciTegic.value.IntegerValue
55

@<SCITEGIC>MOL_PROPERTY
Conf_Id
SciTegic.value.IntegerValue
7

@<SCITEGIC>MOL_PROPERTY
Delta U+W
SciTegic.value.DoubleValue
0.000

@<SCITEGIC>MOL_PROPERTY
U+W
SciTegic.value.DoubleValue
-15.865

@<SCITEGIC>MOL_PROPERTY
Grad RMS
SciTegic.value.DoubleValue
0.000000

@<SCITEGIC>MOL_PROPERTY
U
SciTegic.value.DoubleValue
44.664

@<SCITEGIC>MOL_PROPERTY
W
SciTegic.value.DoubleValue
-60.529

@<SCITEGIC>MOL_PROPERTY
W(PB)
SciTegic.value.DoubleValue
-62.309

@<SCITEGIC>MOL_PROPERTY
W(SA)
SciTegic.value.DoubleValue
1.780

@<SCITEGIC>MOL_PROPERTY
Valence
SciTegic.value.DoubleValue
0.872

@<SCITEGIC>MOL_PROPERTY
Coulomb
SciTegic.value.DoubleValue
43.648

@<SCITEGIC>MOL_PROPERTY
VdW
SciTegic.value.DoubleValue
0.144

@<SCITEGIC>MOL_PROPERTY
VdW6
SciTegic.value.DoubleValue
-2.370

@<SCITEGIC>MOL_PROPERTY
VdW12
SciTegic.value.DoubleValue
2.515

@<SCITEGIC>MOL_PROPERTY
Bond
SciTegic.value.DoubleValue
0.080

@<SCITEGIC>MOL_PROPERTY
Angle
SciTegic.value.DoubleValue
0.376

@<SCITEGIC>MOL_PROPERTY
Pdih
SciTegic.value.DoubleValue
0.416

@<SCITEGIC>MOL_PROPERTY
Idih
SciTegic.value.DoubleValue
0.000

@<SCITEGIC>MOL_PROPERTY
Tether
SciTegic.value.DoubleValue
0.000

@<TRIPOS>MOLECULE
guest-1_confgen4.mol2 : confsearch ligand conformer 56
          17          16           1
SMALL
USER_CHARGES
 
@<TRIPOS>ATOM
       1    N1      19.460816   16.811756   22.245287 N.4        1 MOL1        -0.5891
       2    H1      18.740139   16.440806   21.618654 H          1 MOL1         0.3726
       3    H2      19.008251   17.002607   23.144401 H          1 MOL1         0.3726
       4    H3      20.132039   16.053872   22.406273 H          1 MOL1         0.3726
       5    C1      20.130154   18.045605   21.673482 C.3        1 MOL1         0.0314
       6    H4      20.615140   17.762849   20.735268 H          1 MOL1         0.0999
       7    H5      20.903691   18.364500   22.376890 H          1 MOL1         0.0999
       8    C2      19.148530   19.205693   21.419379 C.3        1 MOL1        -0.1308
       9    H6      18.353711   18.862990   20.743586 H          1 MOL1         0.1025
      10    H7      18.660196   19.488556   22.361401 H          1 MOL1         0.1025
      11    C3      19.836657   20.444395   20.799617 C.3        1 MOL1        -0.1243
      12    H8      19.072182   21.200046   20.570374 H          1 MOL1         0.1025
      13    H9      20.297652   20.170601   19.840084 H          1 MOL1         0.1025
      14    C4      20.902526   21.071037   21.727626 C.3        1 MOL1        -0.2258
      15    H10     20.468443   21.348491   22.697016 H          1 MOL1         0.1036
      16    H11     21.320094   21.979982   21.275451 H          1 MOL1         0.1036
      17    H12     21.735160   20.379990   21.910011 H          1 MOL1         0.1036
@<TRIPOS>BOND
    1     1     2    1
    2     1     3    1
    3     1     4    1
    4     1     5    1
    5     5     6    1
    6     5     7    1
    7     5     8    1
    8     8     9    1
    9     8    10    1
   10     8    11    1
   11    11    12    1
   12    11    13    1
   13    11    14    1
   14    14    15    1
   15    14    16    1
   16    14    17    1
@<TRIPOS>SUBSTRUCTURE
       1 MOL1            1 RESIDUE      1      MOL     
@<SCITEGIC>MOL_PROPERTY
VConf Rank
SciTegic.value.IntegerValue
56

@<SCITEGIC>MOL_PROPERTY
Conf_Id
SciTegic.value.IntegerValue
36

@<SCITEGIC>MOL_PROPERTY
Delta U+W
SciTegic.value.DoubleValue
0.275

@<SCITEGIC>MOL_PROPERTY
U+W
SciTegic.value.DoubleValue
-15.590

@<SCITEGIC>MOL_PROPERTY
Grad RMS
SciTegic.value.DoubleValue
0.000000

@<SCITEGIC>MOL_PROPERTY
U
SciTegic.value.DoubleValue
45.174

@<SCITEGIC>MOL_PROPERTY
W
SciTegic.value.DoubleValue
-60.765

@<SCITEGIC>MOL_PROPERTY
W(PB)
SciTegic.value.DoubleValue
-62.518

@<SCITEGIC>MOL_PROPERTY
W(SA)
SciTegic.value.DoubleValue
1.754

@<SCITEGIC>MOL_PROPERTY
Valence
SciTegic.value.DoubleValue
1.161

@<SCITEGIC>MOL_PROPERTY
Coulomb
SciTegic.value.DoubleValue
43.789

@<SCITEGIC>MOL_PROPERTY
VdW
SciTegic.value.DoubleValue
0.224

@<SCITEGIC>MOL_PROPERTY
VdW6
SciTegic.value.DoubleValue
-2.897

@<SCITEGIC>MOL_PROPERTY
VdW12
SciTegic.value.DoubleValue
3.121

@<SCITEGIC>MOL_PROPERTY
Bond
SciTegic.value.DoubleValue
0.100

@<SCITEGIC>MOL_PROPERTY
Angle
SciTegic.value.DoubleValue
0.500

@<SCITEGIC>MOL_PROPERTY
Pdih
SciTegic.value.DoubleValue
0.561

@<SCITEGIC>MOL_PROPERTY
Idih
SciTegic.value.DoubleValue
0.000

@<SCITEGIC>MOL_PROPERTY
Tether
SciTegic.value.DoubleValue
0.000

@<TRIPOS>MOLECULE
guest-1_confgen4.mol2 : confsearch ligand conformer 57
          17          16           1
SMALL
USER_CHARGES
 
@<TRIPOS>ATOM
       1    N1      19.509572   20.748917   21.191621 N.4        1 MOL1        -0.5891
       2    H1      18.674133   20.158655   21.213447 H          1 MOL1         0.3726
       3    H2      19.760556   20.879556   20.207030 H          1 MOL1         0.3726
       4    H3      19.239481   21.668957   21.554114 H          1 MOL1         0.3726
       5    C1      20.648420   20.141056   21.987587 C.3        1 MOL1         0.0314
       6    H4      20.349920   20.088830   23.038049 H          1 MOL1         0.0999
       7    H5      21.495014   20.828745   21.910764 H          1 MOL1         0.0999
       8    C2      21.089011   18.744813   21.499737 C.3        1 MOL1        -0.1308
       9    H6      21.150372   18.732078   20.403470 H          1 MOL1         0.1025
      10    H7      22.111504   18.571253   21.860611 H          1 MOL1         0.1025
      11    C3      20.201388   17.578233   22.003642 C.3        1 MOL1        -0.1243
      12    H8      20.199220   17.563518   23.102642 H          1 MOL1         0.1025
      13    H9      20.662153   16.631600   21.688095 H          1 MOL1         0.1025
      14    C4      18.745411   17.613414   21.486171 C.3        1 MOL1        -0.2258
      15    H10     18.175987   18.431632   21.942190 H          1 MOL1         0.1036
      16    H11     18.228127   16.679441   21.741646 H          1 MOL1         0.1036
      17    H12     18.712931   17.724019   20.394445 H          1 MOL1         0.1036
@<TRIPOS>BOND
    1     1     2    1
    2     1     3    1
    3     1     4    1
    4     1     5    1
    5     5     6    1
    6     5     7    1
    7     5     8    1
    8     8     9    1
    9     8    10    1
   10     8    11    1
   11    11    12    1
   12    11    13    1
   13    11    14    1
   14    14    15    1
   15    14    16    1
   16    14    17    1
@<TRIPOS>SUBSTRUCTURE
       1 MOL1            1 RESIDUE      1      MOL     
@<SCITEGIC>MOL_PROPERTY
VConf Rank
SciTegic.value.IntegerValue
57

@<SCITEGIC>MOL_PROPERTY
Conf_Id
SciTegic.value.IntegerValue
19

@<SCITEGIC>MOL_PROPERTY
Delta U+W
SciTegic.value.DoubleValue
2.662

@<SCITEGIC>MOL_PROPERTY
U+W
SciTegic.value.DoubleValue
-13.203

@<SCITEGIC>MOL_PROPERTY
Grad RMS
SciTegic.value.DoubleValue
0.000000

@<SCITEGIC>MOL_PROPERTY
U
SciTegic.value.DoubleValue
47.423

@<SCITEGIC>MOL_PROPERTY
W
SciTegic.value.DoubleValue
-60.626

@<SCITEGIC>MOL_PROPERTY
W(PB)
SciTegic.value.DoubleValue
-62.328

@<SCITEGIC>MOL_PROPERTY
W(SA)
SciTegic.value.DoubleValue
1.702

@<SCITEGIC>MOL_PROPERTY
Valence
SciTegic.value.DoubleValue
2.414

@<SCITEGIC>MOL_PROPERTY
Coulomb
SciTegic.value.DoubleValue
44.831

@<SCITEGIC>MOL_PROPERTY
VdW
SciTegic.value.DoubleValue
0.178

@<SCITEGIC>MOL_PROPERTY
VdW6
SciTegic.value.DoubleValue
-3.743

@<SCITEGIC>MOL_PROPERTY
VdW12
SciTegic.value.DoubleValue
3.921

@<SCITEGIC>MOL_PROPERTY
Bond
SciTegic.value.DoubleValue
0.138

@<SCITEGIC>MOL_PROPERTY
Angle
SciTegic.value.DoubleValue
0.941

@<SCITEGIC>MOL_PROPERTY
Pdih
SciTegic.value.DoubleValue
1.335

@<SCITEGIC>MOL_PROPERTY
Idih
SciTegic.value.DoubleValue
0.000

@<SCITEGIC>MOL_PROPERTY
Tether
SciTegic.value.DoubleValue
0.000

@<TRIPOS>MOLECULE
guest-1_confgen4.mol2 : confsearch ligand conformer 58
          17          16           1
SMALL
USER_CHARGES
 
@<TRIPOS>ATOM
       1    N1      20.042110   17.908266   20.151653 N.4        1 MOL1        -0.5891
       2    H1      20.525749   17.095213   19.756859 H          1 MOL1         0.3726
       3    H2      19.506725   18.334491   19.389304 H          1 MOL1         0.3726
       4    H3      19.365919   17.555536   20.833701 H          1 MOL1         0.3726
       5    C1      21.011541   18.892038   20.778100 C.3        1 MOL1         0.0314
       6    H4      21.691924   19.218418   19.986840 H          1 MOL1         0.0999
       7    H5      21.600543   18.366556   21.534570 H          1 MOL1         0.0999
       8    C2      20.340219   20.131286   21.406751 C.3        1 MOL1        -0.1308
       9    H6      21.097699   20.923244   21.476549 H          1 MOL1         0.1025
      10    H7      19.561607   20.517615   20.735748 H          1 MOL1         0.1025
      11    C3      19.762006   19.898517   22.825973 C.3        1 MOL1        -0.1243
      12    H8      19.406680   20.862203   23.217178 H          1 MOL1         0.1025
      13    H9      20.564249   19.573008   23.503079 H          1 MOL1         0.1025
      14    C4      18.596917   18.884514   22.882951 C.3        1 MOL1        -0.2258
      15    H10     17.819097   19.129310   22.147952 H          1 MOL1         0.1036
      16    H11     18.131000   18.895733   23.876909 H          1 MOL1         0.1036
      17    H12     18.945227   17.860897   22.702487 H          1 MOL1         0.1036
@<TRIPOS>BOND
    1     1     2    1
    2     1     3    1
    3     1     4    1
    4     1     5    1
    5     5     6    1
    6     5     7    1
    7     5     8    1
    8     8     9    1
    9     8    10    1
   10     8    11    1
   11    11    12    1
   12    11    13    1
   13    11    14    1
   14    14    15    1
   15    14    16    1
   16    14    17    1
@<TRIPOS>SUBSTRUCTURE
       1 MOL1            1 RESIDUE      1      MOL     
@<SCITEGIC>MOL_PROPERTY
VConf Rank
SciTegic.value.IntegerValue
58

@<SCITEGIC>MOL_PROPERTY
Conf_Id
SciTegic.value.IntegerValue
44

@<SCITEGIC>MOL_PROPERTY
Delta U+W
SciTegic.value.DoubleValue
2.712

@<SCITEGIC>MOL_PROPERTY
U+W
SciTegic.value.DoubleValue
-13.153

@<SCITEGIC>MOL_PROPERTY
Grad RMS
SciTegic.value.DoubleValue
0.000000

@<SCITEGIC>MOL_PROPERTY
U
SciTegic.value.DoubleValue
47.423

@<SCITEGIC>MOL_PROPERTY
W
SciTegic.value.DoubleValue
-60.576

@<SCITEGIC>MOL_PROPERTY
W(PB)
SciTegic.value.DoubleValue
-62.262

@<SCITEGIC>MOL_PROPERTY
W(SA)
SciTegic.value.DoubleValue
1.687

@<SCITEGIC>MOL_PROPERTY
Valence
SciTegic.value.DoubleValue
2.414

@<SCITEGIC>MOL_PROPERTY
Coulomb
SciTegic.value.DoubleValue
44.831

@<SCITEGIC>MOL_PROPERTY
VdW
SciTegic.value.DoubleValue
0.178

@<SCITEGIC>MOL_PROPERTY
VdW6
SciTegic.value.DoubleValue
-3.743

@<SCITEGIC>MOL_PROPERTY
VdW12
SciTegic.value.DoubleValue
3.922

@<SCITEGIC>MOL_PROPERTY
Bond
SciTegic.value.DoubleValue
0.138

@<SCITEGIC>MOL_PROPERTY
Angle
SciTegic.value.DoubleValue
0.941

@<SCITEGIC>MOL_PROPERTY
Pdih
SciTegic.value.DoubleValue
1.335

@<SCITEGIC>MOL_PROPERTY
Idih
SciTegic.value.DoubleValue
0.000

@<SCITEGIC>MOL_PROPERTY
Tether
SciTegic.value.DoubleValue
0.000

@<TRIPOS>MOLECULE
guest-1_confgen4.mol2 : confsearch ligand conformer 59
          17          16           1
SMALL
USER_CHARGES
 
@<TRIPOS>ATOM
       1    N1      20.555029   20.860367   21.127283 N.4        1 MOL1        -0.5891
       2    H1      19.700756   20.973808   21.680270 H          1 MOL1         0.3726
       3    H2      20.323058   21.100665   20.158869 H          1 MOL1         0.3726
       4    H3      21.221175   21.565924   21.457597 H          1 MOL1         0.3726
       5    C1      21.116813   19.456480   21.242852 C.3        1 MOL1         0.0314
       6    H4      21.369158   19.277047   22.291151 H          1 MOL1         0.0999
       7    H5      22.042100   19.419212   20.661480 H          1 MOL1         0.0999
       8    C2      20.155482   18.357992   20.743766 C.3        1 MOL1        -0.1308
       9    H6      19.940282   18.523585   19.679803 H          1 MOL1         0.1025
      10    H7      20.667838   17.388670   20.804680 H          1 MOL1         0.1025
      11    C3      18.823953   18.280581   21.531544 C.3        1 MOL1        -0.1243
      12    H8      18.202210   17.484686   21.098078 H          1 MOL1         0.1025
      13    H9      18.255547   19.211982   21.404813 H          1 MOL1         0.1025
      14    C4      19.026972   17.995327   23.037270 C.3        1 MOL1        -0.2258
      15    H10     19.592729   17.067114   23.190263 H          1 MOL1         0.1036
      16    H11     18.058585   17.884001   23.542050 H          1 MOL1         0.1036
      17    H12     19.566953   18.811321   23.533781 H          1 MOL1         0.1036
@<TRIPOS>BOND
    1     1     2    1
    2     1     3    1
    3     1     4    1
    4     1     5    1
    5     5     6    1
    6     5     7    1
    7     5     8    1
    8     8     9    1
    9     8    10    1
   10     8    11    1
   11    11    12    1
   12    11    13    1
   13    11    14    1
   14    14    15    1
   15    14    16    1
   16    14    17    1
@<TRIPOS>SUBSTRUCTURE
       1 MOL1            1 RESIDUE      1      MOL     
@<SCITEGIC>MOL_PROPERTY
VConf Rank
SciTegic.value.IntegerValue
59

@<SCITEGIC>MOL_PROPERTY
Conf_Id
SciTegic.value.IntegerValue
1

@<SCITEGIC>MOL_PROPERTY
Delta U+W
SciTegic.value.DoubleValue
0.685

@<SCITEGIC>MOL_PROPERTY
U+W
SciTegic.value.DoubleValue
-15.179

@<SCITEGIC>MOL_PROPERTY
Grad RMS
SciTegic.value.DoubleValue
0.000000

@<SCITEGIC>MOL_PROPERTY
U
SciTegic.value.DoubleValue
45.697

@<SCITEGIC>MOL_PROPERTY
W
SciTegic.value.DoubleValue
-60.876

@<SCITEGIC>MOL_PROPERTY
W(PB)
SciTegic.value.DoubleValue
-62.586

@<SCITEGIC>MOL_PROPERTY
W(SA)
SciTegic.value.DoubleValue
1.710

@<SCITEGIC>MOL_PROPERTY
Valence
SciTegic.value.DoubleValue
1.263

@<SCITEGIC>MOL_PROPERTY
Coulomb
SciTegic.value.DoubleValue
44.179

@<SCITEGIC>MOL_PROPERTY
VdW
SciTegic.value.DoubleValue
0.255

@<SCITEGIC>MOL_PROPERTY
VdW6
SciTegic.value.DoubleValue
-3.552

@<SCITEGIC>MOL_PROPERTY
VdW12
SciTegic.value.DoubleValue
3.807

@<SCITEGIC>MOL_PROPERTY
Bond
SciTegic.value.DoubleValue
0.125

@<SCITEGIC>MOL_PROPERTY
Angle
SciTegic.value.DoubleValue
0.616

@<SCITEGIC>MOL_PROPERTY
Pdih
SciTegic.value.DoubleValue
0.521

@<SCITEGIC>MOL_PROPERTY
Idih
SciTegic.value.DoubleValue
0.000

@<SCITEGIC>MOL_PROPERTY
Tether
SciTegic.value.DoubleValue
0.000

@<TRIPOS>MOLECULE
guest-1_confgen4.mol2 : confsearch ligand conformer 60
          17          16           1
SMALL
USER_CHARGES
 
@<TRIPOS>ATOM
       1    N1      19.106422   17.560938   20.542642 N.4        1 MOL1        -0.5891
       2    H1      18.227327   17.241977   20.960773 H          1 MOL1         0.3726
       3    H2      19.868360   17.149797   21.089325 H          1 MOL1         0.3726
       4    H3      19.155937   17.150632   19.604631 H          1 MOL1         0.3726
       5    C1      19.197263   19.074193   20.501830 C.3        1 MOL1         0.0314
       6    H4      18.380035   19.440012   19.874253 H          1 MOL1         0.0999
       7    H5      20.140319   19.344786   20.019928 H          1 MOL1         0.0999
       8    C2      19.112584   19.740821   21.890483 C.3        1 MOL1        -0.1308
       9    H6      19.121489   20.830848   21.757947 H          1 MOL1         0.1025
      10    H7      18.145223   19.496621   22.349098 H          1 MOL1         0.1025
      11    C3      20.255385   19.335691   22.854554 C.3        1 MOL1        -0.1243
      12    H8      20.203853   18.259828   23.070234 H          1 MOL1         0.1025
      13    H9      20.104056   19.845263   23.816500 H          1 MOL1         0.1025
      14    C4      21.658988   19.691502   22.313170 C.3        1 MOL1        -0.2258
      15    H10     22.430876   19.447316   23.054472 H          1 MOL1         0.1036
      16    H11     21.735973   20.763718   22.090702 H          1 MOL1         0.1036
      17    H12     21.891898   19.134096   21.397200 H          1 MOL1         0.1036
@<TRIPOS>BOND
    1     1     2    1
    2     1     3    1
    3     1     4    1
    4     1     5    1
    5     5     6    1
    6     5     7    1
    7     5     8    1
    8     8     9    1
    9     8    10    1
   10     8    11    1
   11    11    12    1
   12    11    13    1
   13    11    14    1
   14    14    15    1
   15    14    16    1
   16    14    17    1
@<TRIPOS>SUBSTRUCTURE
       1 MOL1            1 RESIDUE      1      MOL     
@<SCITEGIC>MOL_PROPERTY
VConf Rank
SciTegic.value.IntegerValue
60

@<SCITEGIC>MOL_PROPERTY
Conf_Id
SciTegic.value.IntegerValue
43

@<SCITEGIC>MOL_PROPERTY
Delta U+W
SciTegic.value.DoubleValue
0.642

@<SCITEGIC>MOL_PROPERTY
U+W
SciTegic.value.DoubleValue
-15.222

@<SCITEGIC>MOL_PROPERTY
Grad RMS
SciTegic.value.DoubleValue
0.000000

@<SCITEGIC>MOL_PROPERTY
U
SciTegic.value.DoubleValue
45.697

@<SCITEGIC>MOL_PROPERTY
W
SciTegic.value.DoubleValue
-60.919

@<SCITEGIC>MOL_PROPERTY
W(PB)
SciTegic.value.DoubleValue
-62.631

@<SCITEGIC>MOL_PROPERTY
W(SA)
SciTegic.value.DoubleValue
1.712

@<SCITEGIC>MOL_PROPERTY
Valence
SciTegic.value.DoubleValue
1.262

@<SCITEGIC>MOL_PROPERTY
Coulomb
SciTegic.value.DoubleValue
44.179

@<SCITEGIC>MOL_PROPERTY
VdW
SciTegic.value.DoubleValue
0.255

@<SCITEGIC>MOL_PROPERTY
VdW6
SciTegic.value.DoubleValue
-3.552

@<SCITEGIC>MOL_PROPERTY
VdW12
SciTegic.value.DoubleValue
3.807

@<SCITEGIC>MOL_PROPERTY
Bond
SciTegic.value.DoubleValue
0.125

@<SCITEGIC>MOL_PROPERTY
Angle
SciTegic.value.DoubleValue
0.616

@<SCITEGIC>MOL_PROPERTY
Pdih
SciTegic.value.DoubleValue
0.521

@<SCITEGIC>MOL_PROPERTY
Idih
SciTegic.value.DoubleValue
0.000

@<SCITEGIC>MOL_PROPERTY
Tether
SciTegic.value.DoubleValue
0.000

@<TRIPOS>MOLECULE
guest-1_confgen4.mol2 : confsearch ligand conformer 61
          17          16           1
SMALL
USER_CHARGES
 
@<TRIPOS>ATOM
       1    N1      21.773998   18.790554   19.810527 N.4        1 MOL1        -0.5891
       2    H1      21.840751   19.776344   19.539496 H          1 MOL1         0.3726
       3    H2      21.196322   18.323204   19.105140 H          1 MOL1         0.3726
       4    H3      22.716942   18.396583   19.729575 H          1 MOL1         0.3726
       5    C1      21.211081   18.622549   21.207758 C.3        1 MOL1         0.0314
       6    H4      21.890765   19.116818   21.907223 H          1 MOL1         0.0999
       7    H5      21.197836   17.554217   21.440171 H          1 MOL1         0.0999
       8    C2      19.794181   19.203875   21.364970 C.3        1 MOL1        -0.1308
       9    H6      19.808371   20.273321   21.115825 H          1 MOL1         0.1025
      10    H7      19.117802   18.715999   20.650492 H          1 MOL1         0.1025
      11    C3      19.258880   19.012153   22.801012 C.3        1 MOL1        -0.1243
      12    H8      19.937287   19.497465   23.516948 H          1 MOL1         0.1025
      13    H9      19.247489   17.942051   23.052162 H          1 MOL1         0.1025
      14    C4      17.837862   19.592966   22.966299 C.3        1 MOL1        -0.2258
      15    H10     17.476068   19.446852   23.992362 H          1 MOL1         0.1036
      16    H11     17.128764   19.102505   22.286715 H          1 MOL1         0.1036
      17    H12     17.824006   20.670190   22.755107 H          1 MOL1         0.1036
@<TRIPOS>BOND
    1     1     2    1
    2     1     3    1
    3     1     4    1
    4     1     5    1
    5     5     6    1
    6     5     7    1
    7     5     8    1
    8     8     9    1
    9     8    10    1
   10     8    11    1
   11    11    12    1
   12    11    13    1
   13    11    14    1
   14    14    15    1
   15    14    16    1
   16    14    17    1
@<TRIPOS>SUBSTRUCTURE
       1 MOL1            1 RESIDUE      1      MOL     
@<SCITEGIC>MOL_PROPERTY
VConf Rank
SciTegic.value.IntegerValue
61

@<SCITEGIC>MOL_PROPERTY
Conf_Id
SciTegic.value.IntegerValue
7

@<SCITEGIC>MOL_PROPERTY
Delta U+W
SciTegic.value.DoubleValue
0.000

@<SCITEGIC>MOL_PROPERTY
U+W
SciTegic.value.DoubleValue
-15.865

@<SCITEGIC>MOL_PROPERTY
Grad RMS
SciTegic.value.DoubleValue
0.000000

@<SCITEGIC>MOL_PROPERTY
U
SciTegic.value.DoubleValue
44.664

@<SCITEGIC>MOL_PROPERTY
W
SciTegic.value.DoubleValue
-60.529

@<SCITEGIC>MOL_PROPERTY
W(PB)
SciTegic.value.DoubleValue
-62.309

@<SCITEGIC>MOL_PROPERTY
W(SA)
SciTegic.value.DoubleValue
1.780

@<SCITEGIC>MOL_PROPERTY
Valence
SciTegic.value.DoubleValue
0.872

@<SCITEGIC>MOL_PROPERTY
Coulomb
SciTegic.value.DoubleValue
43.648

@<SCITEGIC>MOL_PROPERTY
VdW
SciTegic.value.DoubleValue
0.144

@<SCITEGIC>MOL_PROPERTY
VdW6
SciTegic.value.DoubleValue
-2.370

@<SCITEGIC>MOL_PROPERTY
VdW12
SciTegic.value.DoubleValue
2.515

@<SCITEGIC>MOL_PROPERTY
Bond
SciTegic.value.DoubleValue
0.080

@<SCITEGIC>MOL_PROPERTY
Angle
SciTegic.value.DoubleValue
0.376

@<SCITEGIC>MOL_PROPERTY
Pdih
SciTegic.value.DoubleValue
0.416

@<SCITEGIC>MOL_PROPERTY
Idih
SciTegic.value.DoubleValue
0.000

@<SCITEGIC>MOL_PROPERTY
Tether
SciTegic.value.DoubleValue
0.000

@<TRIPOS>MOLECULE
guest-1_confgen4.mol2 : confsearch ligand conformer 62
          17          16           1
SMALL
USER_CHARGES
 
@<TRIPOS>ATOM
       1    N1      20.694843   19.874512   23.773079 N.4        1 MOL1        -0.5891
       2    H1      21.716863   19.943143   23.752747 H          1 MOL1         0.3726
       3    H2      20.460408   19.037833   24.315901 H          1 MOL1         0.3726
       4    H3      20.354461   20.679948   24.308108 H          1 MOL1         0.3726
       5    C1      20.100757   19.831798   22.379310 C.3        1 MOL1         0.0314
       6    H4      20.363978   20.763359   21.871060 H          1 MOL1         0.0999
       7    H5      19.012990   19.791041   22.479007 H          1 MOL1         0.0999
       8    C2      20.591715   18.631723   21.547001 C.3        1 MOL1        -0.1308
       9    H6      21.687822   18.659983   21.486759 H          1 MOL1         0.1025
      10    H7      20.328813   17.696132   22.058314 H          1 MOL1         0.1025
      11    C3      20.009089   18.621176   20.114367 C.3        1 MOL1        -0.1243
      12    H8      20.459020   17.790832   19.552164 H          1 MOL1         0.1025
      13    H9      20.299413   19.542394   19.589723 H          1 MOL1         0.1025
      14    C4      18.470563   18.472041   20.088839 C.3        1 MOL1        -0.2258
      15    H10     18.153190   17.560946   20.612581 H          1 MOL1         0.1036
      16    H11     18.107210   18.407563   19.054999 H          1 MOL1         0.1036
      17    H12     17.974245   19.329347   20.560840 H          1 MOL1         0.1036
@<TRIPOS>BOND
    1     1     2    1
    2     1     3    1
    3     1     4    1
    4     1     5    1
    5     5     6    1
    6     5     7    1
    7     5     8    1
    8     8     9    1
    9     8    10    1
   10     8    11    1
   11    11    12    1
   12    11    13    1
   13    11    14    1
   14    14    15    1
   15    14    16    1
   16    14    17    1
@<TRIPOS>SUBSTRUCTURE
       1 MOL1            1 RESIDUE      1      MOL     
@<SCITEGIC>MOL_PROPERTY
VConf Rank
SciTegic.value.IntegerValue
62

@<SCITEGIC>MOL_PROPERTY
Conf_Id
SciTegic.value.IntegerValue
36

@<SCITEGIC>MOL_PROPERTY
Delta U+W
SciTegic.value.DoubleValue
0.275

@<SCITEGIC>MOL_PROPERTY
U+W
SciTegic.value.DoubleValue
-15.590

@<SCITEGIC>MOL_PROPERTY
Grad RMS
SciTegic.value.DoubleValue
0.000000

@<SCITEGIC>MOL_PROPERTY
U
SciTegic.value.DoubleValue
45.174

@<SCITEGIC>MOL_PROPERTY
W
SciTegic.value.DoubleValue
-60.765

@<SCITEGIC>MOL_PROPERTY
W(PB)
SciTegic.value.DoubleValue
-62.518

@<SCITEGIC>MOL_PROPERTY
W(SA)
SciTegic.value.DoubleValue
1.754

@<SCITEGIC>MOL_PROPERTY
Valence
SciTegic.value.DoubleValue
1.161

@<SCITEGIC>MOL_PROPERTY
Coulomb
SciTegic.value.DoubleValue
43.789

@<SCITEGIC>MOL_PROPERTY
VdW
SciTegic.value.DoubleValue
0.224

@<SCITEGIC>MOL_PROPERTY
VdW6
SciTegic.value.DoubleValue
-2.897

@<SCITEGIC>MOL_PROPERTY
VdW12
SciTegic.value.DoubleValue
3.121

@<SCITEGIC>MOL_PROPERTY
Bond
SciTegic.value.DoubleValue
0.100

@<SCITEGIC>MOL_PROPERTY
Angle
SciTegic.value.DoubleValue
0.500

@<SCITEGIC>MOL_PROPERTY
Pdih
SciTegic.value.DoubleValue
0.561

@<SCITEGIC>MOL_PROPERTY
Idih
SciTegic.value.DoubleValue
0.000

@<SCITEGIC>MOL_PROPERTY
Tether
SciTegic.value.DoubleValue
0.000

@<TRIPOS>MOLECULE
guest-1_confgen4.mol2 : confsearch ligand conformer 63
          17          16           1
SMALL
USER_CHARGES
 
@<TRIPOS>ATOM
       1    N1      20.918233   20.381296   20.858572 N.4        1 MOL1        -0.5891
       2    H1      20.293978   19.956718   20.168004 H          1 MOL1         0.3726
       3    H2      21.856449   20.007571   20.686643 H          1 MOL1         0.3726
       4    H3      20.956306   21.385270   20.655081 H          1 MOL1         0.3726
       5    C1      20.454936   20.110333   22.277010 C.3        1 MOL1         0.0314
       6    H4      19.482648   20.588510   22.422975 H          1 MOL1         0.0999
       7    H5      21.172706   20.593338   22.945627 H          1 MOL1         0.0999
       8    C2      20.360113   18.612980   22.638336 C.3        1 MOL1        -0.1308
       9    H6      21.244361   18.079752   22.264838 H          1 MOL1         0.1025
      10    H7      20.398040   18.529509   23.732612 H          1 MOL1         0.1025
      11    C3      19.064308   17.915192   22.151832 C.3        1 MOL1        -0.1243
      12    H8      18.188443   18.419784   22.583420 H          1 MOL1         0.1025
      13    H9      19.052088   16.891133   22.550760 H          1 MOL1         0.1025
      14    C4      18.913806   17.846522   20.615109 C.3        1 MOL1        -0.2258
      15    H10     18.711912   18.834861   20.186039 H          1 MOL1         0.1036
      16    H11     18.069705   17.199097   20.344015 H          1 MOL1         0.1036
      17    H12     19.815167   17.432851   20.144388 H          1 MOL1         0.1036
@<TRIPOS>BOND
    1     1     2    1
    2     1     3    1
    3     1     4    1
    4     1     5    1
    5     5     6    1
    6     5     7    1
    7     5     8    1
    8     8     9    1
    9     8    10    1
   10     8    11    1
   11    11    12    1
   12    11    13    1
   13    11    14    1
   14    14    15    1
   15    14    16    1
   16    14    17    1
@<TRIPOS>SUBSTRUCTURE
       1 MOL1            1 RESIDUE      1      MOL     
@<SCITEGIC>MOL_PROPERTY
VConf Rank
SciTegic.value.IntegerValue
63

@<SCITEGIC>MOL_PROPERTY
Conf_Id
SciTegic.value.IntegerValue
19

@<SCITEGIC>MOL_PROPERTY
Delta U+W
SciTegic.value.DoubleValue
2.662

@<SCITEGIC>MOL_PROPERTY
U+W
SciTegic.value.DoubleValue
-13.203

@<SCITEGIC>MOL_PROPERTY
Grad RMS
SciTegic.value.DoubleValue
0.000000

@<SCITEGIC>MOL_PROPERTY
U
SciTegic.value.DoubleValue
47.423

@<SCITEGIC>MOL_PROPERTY
W
SciTegic.value.DoubleValue
-60.626

@<SCITEGIC>MOL_PROPERTY
W(PB)
SciTegic.value.DoubleValue
-62.328

@<SCITEGIC>MOL_PROPERTY
W(SA)
SciTegic.value.DoubleValue
1.702

@<SCITEGIC>MOL_PROPERTY
Valence
SciTegic.value.DoubleValue
2.414

@<SCITEGIC>MOL_PROPERTY
Coulomb
SciTegic.value.DoubleValue
44.831

@<SCITEGIC>MOL_PROPERTY
VdW
SciTegic.value.DoubleValue
0.178

@<SCITEGIC>MOL_PROPERTY
VdW6
SciTegic.value.DoubleValue
-3.743

@<SCITEGIC>MOL_PROPERTY
VdW12
SciTegic.value.DoubleValue
3.921

@<SCITEGIC>MOL_PROPERTY
Bond
SciTegic.value.DoubleValue
0.138

@<SCITEGIC>MOL_PROPERTY
Angle
SciTegic.value.DoubleValue
0.941

@<SCITEGIC>MOL_PROPERTY
Pdih
SciTegic.value.DoubleValue
1.335

@<SCITEGIC>MOL_PROPERTY
Idih
SciTegic.value.DoubleValue
0.000

@<SCITEGIC>MOL_PROPERTY
Tether
SciTegic.value.DoubleValue
0.000

@<TRIPOS>MOLECULE
guest-1_confgen4.mol2 : confsearch ligand conformer 64
          17          16           1
SMALL
USER_CHARGES
 
@<TRIPOS>ATOM
       1    N1      19.077308   20.080319   22.931574 N.4        1 MOL1        -0.5891
       2    H1      18.222418   20.546850   23.251474 H          1 MOL1         0.3726
       3    H2      19.837197   20.404802   23.537181 H          1 MOL1         0.3726
       4    H3      18.958911   19.079364   23.107402 H          1 MOL1         0.3726
       5    C1      19.361685   20.364519   21.469247 C.3        1 MOL1         0.0314
       6    H4      19.475694   21.447447   21.370230 H          1 MOL1         0.0999
       7    H5      18.492059   20.061165   20.880155 H          1 MOL1         0.0999
       8    C2      20.629094   19.673565   20.923473 C.3        1 MOL1        -0.1308
       9    H6      20.949718   20.221480   20.027462 H          1 MOL1         0.1025
      10    H7      21.450412   19.770670   21.645787 H          1 MOL1         0.1025
      11    C3      20.431530   18.187814   20.528232 C.3        1 MOL1        -0.1243
      12    H8      21.357873   17.828673   20.058235 H          1 MOL1         0.1025
      13    H9      19.650744   18.110825   19.758513 H          1 MOL1         0.1025
      14    C4      20.084419   17.253098   21.709206 C.3        1 MOL1        -0.2258
      15    H10     20.794786   17.376138   22.537091 H          1 MOL1         0.1036
      16    H11     20.125211   16.203907   21.388755 H          1 MOL1         0.1036
      17    H12     19.070152   17.436209   22.082585 H          1 MOL1         0.1036
@<TRIPOS>BOND
    1     1     2    1
    2     1     3    1
    3     1     4    1
    4     1     5    1
    5     5     6    1
    6     5     7    1
    7     5     8    1
    8     8     9    1
    9     8    10    1
   10     8    11    1
   11    11    12    1
   12    11    13    1
   13    11    14    1
   14    14    15    1
   15    14    16    1
   16    14    17    1
@<TRIPOS>SUBSTRUCTURE
       1 MOL1            1 RESIDUE      1      MOL     
@<SCITEGIC>MOL_PROPERTY
VConf Rank
SciTegic.value.IntegerValue
64

@<SCITEGIC>MOL_PROPERTY
Conf_Id
SciTegic.value.IntegerValue
44

@<SCITEGIC>MOL_PROPERTY
Delta U+W
SciTegic.value.DoubleValue
2.712

@<SCITEGIC>MOL_PROPERTY
U+W
SciTegic.value.DoubleValue
-13.153

@<SCITEGIC>MOL_PROPERTY
Grad RMS
SciTegic.value.DoubleValue
0.000000

@<SCITEGIC>MOL_PROPERTY
U
SciTegic.value.DoubleValue
47.423

@<SCITEGIC>MOL_PROPERTY
W
SciTegic.value.DoubleValue
-60.576

@<SCITEGIC>MOL_PROPERTY
W(PB)
SciTegic.value.DoubleValue
-62.262

@<SCITEGIC>MOL_PROPERTY
W(SA)
SciTegic.value.DoubleValue
1.687

@<SCITEGIC>MOL_PROPERTY
Valence
SciTegic.value.DoubleValue
2.414

@<SCITEGIC>MOL_PROPERTY
Coulomb
SciTegic.value.DoubleValue
44.831

@<SCITEGIC>MOL_PROPERTY
VdW
SciTegic.value.DoubleValue
0.178

@<SCITEGIC>MOL_PROPERTY
VdW6
SciTegic.value.DoubleValue
-3.743

@<SCITEGIC>MOL_PROPERTY
VdW12
SciTegic.value.DoubleValue
3.922

@<SCITEGIC>MOL_PROPERTY
Bond
SciTegic.value.DoubleValue
0.138

@<SCITEGIC>MOL_PROPERTY
Angle
SciTegic.value.DoubleValue
0.941

@<SCITEGIC>MOL_PROPERTY
Pdih
SciTegic.value.DoubleValue
1.335

@<SCITEGIC>MOL_PROPERTY
Idih
SciTegic.value.DoubleValue
0.000

@<SCITEGIC>MOL_PROPERTY
Tether
SciTegic.value.DoubleValue
0.000

@<TRIPOS>MOLECULE
guest-1_confgen4.mol2 : confsearch ligand conformer 65
          17          16           1
SMALL
USER_CHARGES
 
@<TRIPOS>ATOM
       1    N1      18.243555   19.627793   20.708881 N.4        1 MOL1        -0.5891
       2    H1      18.584058   20.418662   21.262985 H          1 MOL1         0.3726
       3    H2      17.414884   19.258941   21.184938 H          1 MOL1         0.3726
       4    H3      17.926877   20.006215   19.810450 H          1 MOL1         0.3726
       5    C1      19.311878   18.566605   20.528818 C.3        1 MOL1         0.0314
       6    H4      20.150417   19.016855   19.991294 H          1 MOL1         0.0999
       7    H5      18.893176   17.775905   19.900312 H          1 MOL1         0.0999
       8    C2      19.811612   17.954889   21.853956 C.3        1 MOL1        -0.1308
       9    H6      18.970482   17.469940   22.366865 H          1 MOL1         0.1025
      10    H7      20.530095   17.157065   21.623604 H          1 MOL1         0.1025
      11    C3      20.475440   18.977783   22.809245 C.3        1 MOL1        -0.1243
      12    H8      20.784385   18.456642   23.726235 H          1 MOL1         0.1025
      13    H9      19.741918   19.733071   23.122519 H          1 MOL1         0.1025
      14    C4      21.707698   19.674839   22.188399 C.3        1 MOL1        -0.2258
      15    H10     22.457107   18.939556   21.867757 H          1 MOL1         0.1036
      16    H11     22.183451   20.339939   22.920703 H          1 MOL1         0.1036
      17    H12     21.431609   20.284062   21.318588 H          1 MOL1         0.1036
@<TRIPOS>BOND
    1     1     2    1
    2     1     3    1
    3     1     4    1
    4     1     5    1
    5     5     6    1
    6     5     7    1
    7     5     8    1
    8     8     9    1
    9     8    10    1
   10     8    11    1
   11    11    12    1
   12    11    13    1
   13    11    14    1
   14    14    15    1
   15    14    16    1
   16    14    17    1
@<TRIPOS>SUBSTRUCTURE
       1 MOL1            1 RESIDUE      1      MOL     
@<SCITEGIC>MOL_PROPERTY
VConf Rank
SciTegic.value.IntegerValue
65

@<SCITEGIC>MOL_PROPERTY
Conf_Id
SciTegic.value.IntegerValue
1

@<SCITEGIC>MOL_PROPERTY
Delta U+W
SciTegic.value.DoubleValue
0.685

@<SCITEGIC>MOL_PROPERTY
U+W
SciTegic.value.DoubleValue
-15.179

@<SCITEGIC>MOL_PROPERTY
Grad RMS
SciTegic.value.DoubleValue
0.000000

@<SCITEGIC>MOL_PROPERTY
U
SciTegic.value.DoubleValue
45.697

@<SCITEGIC>MOL_PROPERTY
W
SciTegic.value.DoubleValue
-60.876

@<SCITEGIC>MOL_PROPERTY
W(PB)
SciTegic.value.DoubleValue
-62.586

@<SCITEGIC>MOL_PROPERTY
W(SA)
SciTegic.value.DoubleValue
1.710

@<SCITEGIC>MOL_PROPERTY
Valence
SciTegic.value.DoubleValue
1.263

@<SCITEGIC>MOL_PROPERTY
Coulomb
SciTegic.value.DoubleValue
44.179

@<SCITEGIC>MOL_PROPERTY
VdW
SciTegic.value.DoubleValue
0.255

@<SCITEGIC>MOL_PROPERTY
VdW6
SciTegic.value.DoubleValue
-3.552

@<SCITEGIC>MOL_PROPERTY
VdW12
SciTegic.value.DoubleValue
3.807

@<SCITEGIC>MOL_PROPERTY
Bond
SciTegic.value.DoubleValue
0.125

@<SCITEGIC>MOL_PROPERTY
Angle
SciTegic.value.DoubleValue
0.616

@<SCITEGIC>MOL_PROPERTY
Pdih
SciTegic.value.DoubleValue
0.521

@<SCITEGIC>MOL_PROPERTY
Idih
SciTegic.value.DoubleValue
0.000

@<SCITEGIC>MOL_PROPERTY
Tether
SciTegic.value.DoubleValue
0.000

@<TRIPOS>MOLECULE
guest-1_confgen4.mol2 : confsearch ligand conformer 66
          17          16           1
SMALL
USER_CHARGES
 
@<TRIPOS>ATOM
       1    N1      18.528494   20.269394   22.275294 N.4        1 MOL1        -0.5891
       2    H1      17.659846   19.772926   22.495176 H          1 MOL1         0.3726
       3    H2      18.563856   20.381631   21.258141 H          1 MOL1         0.3726
       4    H3      18.444420   21.208575   22.677212 H          1 MOL1         0.3726
       5    C1      19.747551   19.537371   22.802458 C.3        1 MOL1         0.0314
       6    H4      19.661000   19.487554   23.891294 H          1 MOL1         0.0999
       7    H5      20.631842   20.132734   22.560844 H          1 MOL1         0.0999
       8    C2      19.910258   18.111180   22.237280 C.3        1 MOL1        -0.1308
       9    H6      20.775730   17.638551   22.720377 H          1 MOL1         0.1025
      10    H7      19.036213   17.509608   22.519956 H          1 MOL1         0.1025
      11    C3      20.094184   18.059868   20.700044 C.3        1 MOL1        -0.1243
      12    H8      19.195876   18.445679   20.199195 H          1 MOL1         0.1025
      13    H9      20.186803   17.009626   20.389696 H          1 MOL1         0.1025
      14    C4      21.337224   18.839005   20.212605 C.3        1 MOL1        -0.2258
      15    H10     21.464825   18.721268   19.128712 H          1 MOL1         0.1036
      16    H11     22.249722   18.470384   20.698952 H          1 MOL1         0.1036
      17    H12     21.248143   19.912686   20.420505 H          1 MOL1         0.1036
@<TRIPOS>BOND
    1     1     2    1
    2     1     3    1
    3     1     4    1
    4     1     5    1
    5     5     6    1
    6     5     7    1
    7     5     8    1
    8     8     9    1
    9     8    10    1
   10     8    11    1
   11    11    12    1
   12    11    13    1
   13    11    14    1
   14    14    15    1
   15    14    16    1
   16    14    17    1
@<TRIPOS>SUBSTRUCTURE
       1 MOL1            1 RESIDUE      1      MOL     
@<SCITEGIC>MOL_PROPERTY
VConf Rank
SciTegic.value.IntegerValue
66

@<SCITEGIC>MOL_PROPERTY
Conf_Id
SciTegic.value.IntegerValue
43

@<SCITEGIC>MOL_PROPERTY
Delta U+W
SciTegic.value.DoubleValue
0.642

@<SCITEGIC>MOL_PROPERTY
U+W
SciTegic.value.DoubleValue
-15.222

@<SCITEGIC>MOL_PROPERTY
Grad RMS
SciTegic.value.DoubleValue
0.000000

@<SCITEGIC>MOL_PROPERTY
U
SciTegic.value.DoubleValue
45.697

@<SCITEGIC>MOL_PROPERTY
W
SciTegic.value.DoubleValue
-60.919

@<SCITEGIC>MOL_PROPERTY
W(PB)
SciTegic.value.DoubleValue
-62.631

@<SCITEGIC>MOL_PROPERTY
W(SA)
SciTegic.value.DoubleValue
1.712

@<SCITEGIC>MOL_PROPERTY
Valence
SciTegic.value.DoubleValue
1.262

@<SCITEGIC>MOL_PROPERTY
Coulomb
SciTegic.value.DoubleValue
44.179

@<SCITEGIC>MOL_PROPERTY
VdW
SciTegic.value.DoubleValue
0.255

@<SCITEGIC>MOL_PROPERTY
VdW6
SciTegic.value.DoubleValue
-3.552

@<SCITEGIC>MOL_PROPERTY
VdW12
SciTegic.value.DoubleValue
3.807

@<SCITEGIC>MOL_PROPERTY
Bond
SciTegic.value.DoubleValue
0.125

@<SCITEGIC>MOL_PROPERTY
Angle
SciTegic.value.DoubleValue
0.616

@<SCITEGIC>MOL_PROPERTY
Pdih
SciTegic.value.DoubleValue
0.521

@<SCITEGIC>MOL_PROPERTY
Idih
SciTegic.value.DoubleValue
0.000

@<SCITEGIC>MOL_PROPERTY
Tether
SciTegic.value.DoubleValue
0.000

@<TRIPOS>MOLECULE
guest-1_confgen4.mol2 : confsearch ligand conformer 67
          17          16           1
SMALL
USER_CHARGES
 
@<TRIPOS>ATOM
       1    N1      19.549010   17.769941   19.421851 N.4        1 MOL1        -0.5891
       2    H1      20.520845   17.746092   19.098334 H          1 MOL1         0.3726
       3    H2      19.079467   18.521892   18.908239 H          1 MOL1         0.3726
       4    H3      19.115347   16.890760   19.122040 H          1 MOL1         0.3726
       5    C1      19.454481   17.961985   20.922364 C.3        1 MOL1         0.0314
       6    H4      19.946651   17.112186   21.403128 H          1 MOL1         0.0999
       7    H5      18.396698   17.946377   21.198725 H          1 MOL1         0.0999
       8    C2      20.096763   19.274297   21.407721 C.3        1 MOL1        -0.1308
       9    H6      21.155011   19.293234   21.114904 H          1 MOL1         0.1025
      10    H7      19.610299   20.124552   20.911324 H          1 MOL1         0.1025
      11    C3      19.978876   19.430429   22.939794 C.3        1 MOL1        -0.1243
      12    H8      20.462752   18.577917   23.437201 H          1 MOL1         0.1025
      13    H9      18.919934   19.408295   23.233867 H          1 MOL1         0.1025
      14    C4      20.621101   20.744674   23.434022 C.3        1 MOL1        -0.2258
      15    H10     20.526938   20.836507   24.523860 H          1 MOL1         0.1036
      16    H11     20.134623   21.617712   22.979763 H          1 MOL1         0.1036
      17    H12     21.689611   20.780796   23.184643 H          1 MOL1         0.1036
@<TRIPOS>BOND
    1     1     2    1
    2     1     3    1
    3     1     4    1
    4     1     5    1
    5     5     6    1
    6     5     7    1
    7     5     8    1
    8     8     9    1
    9     8    10    1
   10     8    11    1
   11    11    12    1
   12    11    13    1
   13    11    14    1
   14    14    15    1
   15    14    16    1
   16    14    17    1
@<TRIPOS>SUBSTRUCTURE
       1 MOL1            1 RESIDUE      1      MOL     
@<SCITEGIC>MOL_PROPERTY
VConf Rank
SciTegic.value.IntegerValue
67

@<SCITEGIC>MOL_PROPERTY
Conf_Id
SciTegic.value.IntegerValue
7

@<SCITEGIC>MOL_PROPERTY
Delta U+W
SciTegic.value.DoubleValue
0.000

@<SCITEGIC>MOL_PROPERTY
U+W
SciTegic.value.DoubleValue
-15.865

@<SCITEGIC>MOL_PROPERTY
Grad RMS
SciTegic.value.DoubleValue
0.000000

@<SCITEGIC>MOL_PROPERTY
U
SciTegic.value.DoubleValue
44.664

@<SCITEGIC>MOL_PROPERTY
W
SciTegic.value.DoubleValue
-60.529

@<SCITEGIC>MOL_PROPERTY
W(PB)
SciTegic.value.DoubleValue
-62.309

@<SCITEGIC>MOL_PROPERTY
W(SA)
SciTegic.value.DoubleValue
1.780

@<SCITEGIC>MOL_PROPERTY
Valence
SciTegic.value.DoubleValue
0.872

@<SCITEGIC>MOL_PROPERTY
Coulomb
SciTegic.value.DoubleValue
43.648

@<SCITEGIC>MOL_PROPERTY
VdW
SciTegic.value.DoubleValue
0.144

@<SCITEGIC>MOL_PROPERTY
VdW6
SciTegic.value.DoubleValue
-2.370

@<SCITEGIC>MOL_PROPERTY
VdW12
SciTegic.value.DoubleValue
2.515

@<SCITEGIC>MOL_PROPERTY
Bond
SciTegic.value.DoubleValue
0.080

@<SCITEGIC>MOL_PROPERTY
Angle
SciTegic.value.DoubleValue
0.376

@<SCITEGIC>MOL_PROPERTY
Pdih
SciTegic.value.DoubleValue
0.416

@<SCITEGIC>MOL_PROPERTY
Idih
SciTegic.value.DoubleValue
0.000

@<SCITEGIC>MOL_PROPERTY
Tether
SciTegic.value.DoubleValue
0.000

@<TRIPOS>MOLECULE
guest-1_confgen4.mol2 : confsearch ligand conformer 68
          17          16           1
SMALL
USER_CHARGES
 
@<TRIPOS>ATOM
       1    N1      18.128603   20.094051   20.358560 N.4        1 MOL1        -0.5891
       2    H1      18.407838   20.147705   19.374286 H          1 MOL1         0.3726
       3    H2      18.197048   21.041403   20.742598 H          1 MOL1         0.3726
       4    H3      17.135536   19.840084   20.371313 H          1 MOL1         0.3726
       5    C1      18.973648   19.104210   21.135394 C.3        1 MOL1         0.0314
       6    H4      18.829332   18.115379   20.691779 H          1 MOL1         0.0999
       7    H5      18.600252   19.077176   22.162371 H          1 MOL1         0.0999
       8    C2      20.473540   19.456746   21.136825 C.3        1 MOL1        -0.1308
       9    H6      20.829101   19.520711   20.099828 H          1 MOL1         0.1025
      10    H7      20.618301   20.450613   21.580853 H          1 MOL1         0.1025
      11    C3      21.329566   18.418465   21.899187 C.3        1 MOL1        -0.1243
      12    H8      22.390784   18.684360   21.793845 H          1 MOL1         0.1025
      13    H9      21.211665   17.428988   21.435271 H          1 MOL1         0.1025
      14    C4      20.978256   18.332360   23.402226 C.3        1 MOL1        -0.2258
      15    H10     21.082270   19.310824   23.888963 H          1 MOL1         0.1036
      16    H11     21.649045   17.630633   23.914700 H          1 MOL1         0.1036
      17    H12     19.950596   17.980064   23.556801 H          1 MOL1         0.1036
@<TRIPOS>BOND
    1     1     2    1
    2     1     3    1
    3     1     4    1
    4     1     5    1
    5     5     6    1
    6     5     7    1
    7     5     8    1
    8     8     9    1
    9     8    10    1
   10     8    11    1
   11    11    12    1
   12    11    13    1
   13    11    14    1
   14    14    15    1
   15    14    16    1
   16    14    17    1
@<TRIPOS>SUBSTRUCTURE
       1 MOL1            1 RESIDUE      1      MOL     
@<SCITEGIC>MOL_PROPERTY
VConf Rank
SciTegic.value.IntegerValue
68

@<SCITEGIC>MOL_PROPERTY
Conf_Id
SciTegic.value.IntegerValue
36

@<SCITEGIC>MOL_PROPERTY
Delta U+W
SciTegic.value.DoubleValue
0.275

@<SCITEGIC>MOL_PROPERTY
U+W
SciTegic.value.DoubleValue
-15.590

@<SCITEGIC>MOL_PROPERTY
Grad RMS
SciTegic.value.DoubleValue
0.000000

@<SCITEGIC>MOL_PROPERTY
U
SciTegic.value.DoubleValue
45.174

@<SCITEGIC>MOL_PROPERTY
W
SciTegic.value.DoubleValue
-60.765

@<SCITEGIC>MOL_PROPERTY
W(PB)
SciTegic.value.DoubleValue
-62.518

@<SCITEGIC>MOL_PROPERTY
W(SA)
SciTegic.value.DoubleValue
1.754

@<SCITEGIC>MOL_PROPERTY
Valence
SciTegic.value.DoubleValue
1.161

@<SCITEGIC>MOL_PROPERTY
Coulomb
SciTegic.value.DoubleValue
43.789

@<SCITEGIC>MOL_PROPERTY
VdW
SciTegic.value.DoubleValue
0.224

@<SCITEGIC>MOL_PROPERTY
VdW6
SciTegic.value.DoubleValue
-2.897

@<SCITEGIC>MOL_PROPERTY
VdW12
SciTegic.value.DoubleValue
3.121

@<SCITEGIC>MOL_PROPERTY
Bond
SciTegic.value.DoubleValue
0.100

@<SCITEGIC>MOL_PROPERTY
Angle
SciTegic.value.DoubleValue
0.500

@<SCITEGIC>MOL_PROPERTY
Pdih
SciTegic.value.DoubleValue
0.561

@<SCITEGIC>MOL_PROPERTY
Idih
SciTegic.value.DoubleValue
0.000

@<SCITEGIC>MOL_PROPERTY
Tether
SciTegic.value.DoubleValue
0.000

@<TRIPOS>MOLECULE
guest-1_confgen4.mol2 : confsearch ligand conformer 69
          17          16           1
SMALL
USER_CHARGES
 
@<TRIPOS>ATOM
       1    N1      21.796867   18.964082   21.574739 N.4        1 MOL1        -0.5891
       2    H1      21.430392   18.445248   22.376831 H          1 MOL1         0.3726
       3    H2      22.096368   19.880825   21.920228 H          1 MOL1         0.3726
       4    H3      22.640668   18.475491   21.258349 H          1 MOL1         0.3726
       5    C1      20.767958   19.087817   20.467460 C.3        1 MOL1         0.0314
       6    H4      20.537747   18.086871   20.092743 H          1 MOL1         0.0999
       7    H5      21.236787   19.652401   19.656916 H          1 MOL1         0.0999
       8    C2      19.465384   19.800301   20.888504 C.3        1 MOL1        -0.1308
       9    H6      19.700678   20.690171   21.487251 H          1 MOL1         0.1025
      10    H7      18.976859   20.170841   19.977522 H          1 MOL1         0.1025
      11    C3      18.452808   18.897877   21.638854 C.3        1 MOL1        -0.1243
      12    H8      18.177163   18.044255   21.003738 H          1 MOL1         0.1025
      13    H9      17.528205   19.471124   21.795331 H          1 MOL1         0.1025
      14    C4      18.949510   18.381636   23.008403 C.3        1 MOL1        -0.2258
      15    H10     19.744921   17.636195   22.893014 H          1 MOL1         0.1036
      16    H11     18.128986   17.895661   23.552209 H          1 MOL1         0.1036
      17    H12     19.321896   19.203919   23.633169 H          1 MOL1         0.1036
@<TRIPOS>BOND
    1     1     2    1
    2     1     3    1
    3     1     4    1
    4     1     5    1
    5     5     6    1
    6     5     7    1
    7     5     8    1
    8     8     9    1
    9     8    10    1
   10     8    11    1
   11    11    12    1
   12    11    13    1
   13    11    14    1
   14    14    15    1
   15    14    16    1
   16    14    17    1
@<TRIPOS>SUBSTRUCTURE
       1 MOL1            1 RESIDUE      1      MOL     
@<SCITEGIC>MOL_PROPERTY
VConf Rank
SciTegic.value.IntegerValue
69

@<SCITEGIC>MOL_PROPERTY
Conf_Id
SciTegic.value.IntegerValue
19

@<SCITEGIC>MOL_PROPERTY
Delta U+W
SciTegic.value.DoubleValue
2.662

@<SCITEGIC>MOL_PROPERTY
U+W
SciTegic.value.DoubleValue
-13.203

@<SCITEGIC>MOL_PROPERTY
Grad RMS
SciTegic.value.DoubleValue
0.000000

@<SCITEGIC>MOL_PROPERTY
U
SciTegic.value.DoubleValue
47.423

@<SCITEGIC>MOL_PROPERTY
W
SciTegic.value.DoubleValue
-60.626

@<SCITEGIC>MOL_PROPERTY
W(PB)
SciTegic.value.DoubleValue
-62.328

@<SCITEGIC>MOL_PROPERTY
W(SA)
SciTegic.value.DoubleValue
1.702

@<SCITEGIC>MOL_PROPERTY
Valence
SciTegic.value.DoubleValue
2.414

@<SCITEGIC>MOL_PROPERTY
Coulomb
SciTegic.value.DoubleValue
44.831

@<SCITEGIC>MOL_PROPERTY
VdW
SciTegic.value.DoubleValue
0.178

@<SCITEGIC>MOL_PROPERTY
VdW6
SciTegic.value.DoubleValue
-3.743

@<SCITEGIC>MOL_PROPERTY
VdW12
SciTegic.value.DoubleValue
3.921

@<SCITEGIC>MOL_PROPERTY
Bond
SciTegic.value.DoubleValue
0.138

@<SCITEGIC>MOL_PROPERTY
Angle
SciTegic.value.DoubleValue
0.941

@<SCITEGIC>MOL_PROPERTY
Pdih
SciTegic.value.DoubleValue
1.335

@<SCITEGIC>MOL_PROPERTY
Idih
SciTegic.value.DoubleValue
0.000

@<SCITEGIC>MOL_PROPERTY
Tether
SciTegic.value.DoubleValue
0.000

@<TRIPOS>MOLECULE
guest-1_confgen4.mol2 : confsearch ligand conformer 70
          17          16           1
SMALL
USER_CHARGES
 
@<TRIPOS>ATOM
       1    N1      20.996237   20.291349   22.435829 N.4        1 MOL1        -0.5891
       2    H1      21.517622   20.532729   23.284779 H          1 MOL1         0.3726
       3    H2      20.992290   21.126244   21.842184 H          1 MOL1         0.3726
       4    H3      21.535734   19.574713   21.943672 H          1 MOL1         0.3726
       5    C1      19.590498   19.818376   22.752427 C.3        1 MOL1         0.0314
       6    H4      19.086659   20.638103   23.271784 H          1 MOL1         0.0999
       7    H5      19.654940   18.971366   23.440703 H          1 MOL1         0.0999
       8    C2      18.760173   19.422495   21.513295 C.3        1 MOL1        -0.1308
       9    H6      17.699085   19.470433   21.791935 H          1 MOL1         0.1025
      10    H7      18.896234   20.166019   20.716809 H          1 MOL1         0.1025
      11    C3      19.047693   17.997457   20.975426 C.3        1 MOL1        -0.1243
      12    H8      18.334441   17.782162   20.167396 H          1 MOL1         0.1025
      13    H9      18.846807   17.257645   21.763045 H          1 MOL1         0.1025
      14    C4      20.481019   17.796170   20.433265 C.3        1 MOL1        -0.2258
      15    H10     20.747670   18.578894   19.711190 H          1 MOL1         0.1036
      16    H11     20.561506   16.828844   19.920470 H          1 MOL1         0.1036
      17    H12     21.220604   17.793846   21.242393 H          1 MOL1         0.1036
@<TRIPOS>BOND
    1     1     2    1
    2     1     3    1
    3     1     4    1
    4     1     5    1
    5     5     6    1
    6     5     7    1
    7     5     8    1
    8     8     9    1
    9     8    10    1
   10     8    11    1
   11    11    12    1
   12    11    13    1
   13    11    14    1
   14    14    15    1
   15    14    16    1
   16    14    17    1
@<TRIPOS>SUBSTRUCTURE
       1 MOL1            1 RESIDUE      1      MOL     
@<SCITEGIC>MOL_PROPERTY
VConf Rank
SciTegic.value.IntegerValue
70

@<SCITEGIC>MOL_PROPERTY
Conf_Id
SciTegic.value.IntegerValue
44

@<SCITEGIC>MOL_PROPERTY
Delta U+W
SciTegic.value.DoubleValue
2.712

@<SCITEGIC>MOL_PROPERTY
U+W
SciTegic.value.DoubleValue
-13.153

@<SCITEGIC>MOL_PROPERTY
Grad RMS
SciTegic.value.DoubleValue
0.000000

@<SCITEGIC>MOL_PROPERTY
U
SciTegic.value.DoubleValue
47.423

@<SCITEGIC>MOL_PROPERTY
W
SciTegic.value.DoubleValue
-60.576

@<SCITEGIC>MOL_PROPERTY
W(PB)
SciTegic.value.DoubleValue
-62.262

@<SCITEGIC>MOL_PROPERTY
W(SA)
SciTegic.value.DoubleValue
1.687

@<SCITEGIC>MOL_PROPERTY
Valence
SciTegic.value.DoubleValue
2.414

@<SCITEGIC>MOL_PROPERTY
Coulomb
SciTegic.value.DoubleValue
44.831

@<SCITEGIC>MOL_PROPERTY
VdW
SciTegic.value.DoubleValue
0.178

@<SCITEGIC>MOL_PROPERTY
VdW6
SciTegic.value.DoubleValue
-3.743

@<SCITEGIC>MOL_PROPERTY
VdW12
SciTegic.value.DoubleValue
3.922

@<SCITEGIC>MOL_PROPERTY
Bond
SciTegic.value.DoubleValue
0.138

@<SCITEGIC>MOL_PROPERTY
Angle
SciTegic.value.DoubleValue
0.941

@<SCITEGIC>MOL_PROPERTY
Pdih
SciTegic.value.DoubleValue
1.335

@<SCITEGIC>MOL_PROPERTY
Idih
SciTegic.value.DoubleValue
0.000

@<SCITEGIC>MOL_PROPERTY
Tether
SciTegic.value.DoubleValue
0.000

@<TRIPOS>MOLECULE
guest-1_confgen4.mol2 : confsearch ligand conformer 71
          17          16           1
SMALL
USER_CHARGES
 
@<TRIPOS>ATOM
       1    N1      20.388287   17.214209   22.228739 N.4        1 MOL1        -0.5891
       2    H1      20.412904   17.830302   23.046217 H          1 MOL1         0.3726
       3    H2      21.357882   16.975400   22.000191 H          1 MOL1         0.3726
       4    H3      19.929176   16.345986   22.522123 H          1 MOL1         0.3726
       5    C1      19.674199   17.862142   21.058218 C.3        1 MOL1         0.0314
       6    H4      18.642544   18.062602   21.358733 H          1 MOL1         0.0999
       7    H5      19.652865   17.138172   20.239102 H          1 MOL1         0.0999
       8    C2      20.336588   19.166876   20.569514 C.3        1 MOL1        -0.1308
       9    H6      21.358269   18.947874   20.231941 H          1 MOL1         0.1025
      10    H7      19.793315   19.526960   19.685773 H          1 MOL1         0.1025
      11    C3      20.377060   20.290392   21.635173 C.3        1 MOL1        -0.1243
      12    H8      20.876296   21.169349   21.203775 H          1 MOL1         0.1025
      13    H9      20.994993   19.979399   22.488458 H          1 MOL1         0.1025
      14    C4      18.973018   20.704083   22.132490 C.3        1 MOL1        -0.2258
      15    H10     18.335742   21.020627   21.296580 H          1 MOL1         0.1036
      16    H11     19.045513   21.544523   22.834896 H          1 MOL1         0.1036
      17    H12     18.469992   19.879867   22.653625 H          1 MOL1         0.1036
@<TRIPOS>BOND
    1     1     2    1
    2     1     3    1
    3     1     4    1
    4     1     5    1
    5     5     6    1
    6     5     7    1
    7     5     8    1
    8     8     9    1
    9     8    10    1
   10     8    11    1
   11    11    12    1
   12    11    13    1
   13    11    14    1
   14    14    15    1
   15    14    16    1
   16    14    17    1
@<TRIPOS>SUBSTRUCTURE
       1 MOL1            1 RESIDUE      1      MOL     
@<SCITEGIC>MOL_PROPERTY
VConf Rank
SciTegic.value.IntegerValue
71

@<SCITEGIC>MOL_PROPERTY
Conf_Id
SciTegic.value.IntegerValue
1

@<SCITEGIC>MOL_PROPERTY
Delta U+W
SciTegic.value.DoubleValue
0.685

@<SCITEGIC>MOL_PROPERTY
U+W
SciTegic.value.DoubleValue
-15.179

@<SCITEGIC>MOL_PROPERTY
Grad RMS
SciTegic.value.DoubleValue
0.000000

@<SCITEGIC>MOL_PROPERTY
U
SciTegic.value.DoubleValue
45.697

@<SCITEGIC>MOL_PROPERTY
W
SciTegic.value.DoubleValue
-60.876

@<SCITEGIC>MOL_PROPERTY
W(PB)
SciTegic.value.DoubleValue
-62.586

@<SCITEGIC>MOL_PROPERTY
W(SA)
SciTegic.value.DoubleValue
1.710

@<SCITEGIC>MOL_PROPERTY
Valence
SciTegic.value.DoubleValue
1.263

@<SCITEGIC>MOL_PROPERTY
Coulomb
SciTegic.value.DoubleValue
44.179

@<SCITEGIC>MOL_PROPERTY
VdW
SciTegic.value.DoubleValue
0.255

@<SCITEGIC>MOL_PROPERTY
VdW6
SciTegic.value.DoubleValue
-3.552

@<SCITEGIC>MOL_PROPERTY
VdW12
SciTegic.value.DoubleValue
3.807

@<SCITEGIC>MOL_PROPERTY
Bond
SciTegic.value.DoubleValue
0.125

@<SCITEGIC>MOL_PROPERTY
Angle
SciTegic.value.DoubleValue
0.616

@<SCITEGIC>MOL_PROPERTY
Pdih
SciTegic.value.DoubleValue
0.521

@<SCITEGIC>MOL_PROPERTY
Idih
SciTegic.value.DoubleValue
0.000

@<SCITEGIC>MOL_PROPERTY
Tether
SciTegic.value.DoubleValue
0.000

@<TRIPOS>MOLECULE
guest-1_confgen4.mol2 : confsearch ligand conformer 72
          17          16           1
SMALL
USER_CHARGES
 
@<TRIPOS>ATOM
       1    N1      21.752894   19.288491   20.864634 N.4        1 MOL1        -0.5891
       2    H1      21.848081   20.199153   20.405274 H          1 MOL1         0.3726
       3    H2      21.252264   18.673538   20.216829 H          1 MOL1         0.3726
       4    H3      22.698695   18.907267   20.968541 H          1 MOL1         0.3726
       5    C1      21.039810   19.399385   22.198452 C.3        1 MOL1         0.0314
       6    H4      21.646106   20.036381   22.848205 H          1 MOL1         0.0999
       7    H5      20.998893   18.402710   22.645410 H          1 MOL1         0.0999
       8    C2      19.615282   19.982679   22.096430 C.3        1 MOL1        -0.1308
       9    H6      19.204433   20.085439   23.109567 H          1 MOL1         0.1025
      10    H7      19.670663   20.999069   21.684567 H          1 MOL1         0.1025
      11    C3      18.646266   19.132209   21.237786 C.3        1 MOL1        -0.1243
      12    H8      18.996250   19.096315   20.197172 H          1 MOL1         0.1025
      13    H9      17.667002   19.630446   21.211214 H          1 MOL1         0.1025
      14    C4      18.463702   17.694409   21.775559 C.3        1 MOL1        -0.2258
      15    H10     17.721487   17.150731   21.176812 H          1 MOL1         0.1036
      16    H11     18.112713   17.703734   22.815649 H          1 MOL1         0.1036
      17    H12     19.401445   17.126083   21.735642 H          1 MOL1         0.1036
@<TRIPOS>BOND
    1     1     2    1
    2     1     3    1
    3     1     4    1
    4     1     5    1
    5     5     6    1
    6     5     7    1
    7     5     8    1
    8     8     9    1
    9     8    10    1
   10     8    11    1
   11    11    12    1
   12    11    13    1
   13    11    14    1
   14    14    15    1
   15    14    16    1
   16    14    17    1
@<TRIPOS>SUBSTRUCTURE
       1 MOL1            1 RESIDUE      1      MOL     
@<SCITEGIC>MOL_PROPERTY
VConf Rank
SciTegic.value.IntegerValue
72

@<SCITEGIC>MOL_PROPERTY
Conf_Id
SciTegic.value.IntegerValue
43

@<SCITEGIC>MOL_PROPERTY
Delta U+W
SciTegic.value.DoubleValue
0.642

@<SCITEGIC>MOL_PROPERTY
U+W
SciTegic.value.DoubleValue
-15.222

@<SCITEGIC>MOL_PROPERTY
Grad RMS
SciTegic.value.DoubleValue
0.000000

@<SCITEGIC>MOL_PROPERTY
U
SciTegic.value.DoubleValue
45.697

@<SCITEGIC>MOL_PROPERTY
W
SciTegic.value.DoubleValue
-60.919

@<SCITEGIC>MOL_PROPERTY
W(PB)
SciTegic.value.DoubleValue
-62.631

@<SCITEGIC>MOL_PROPERTY
W(SA)
SciTegic.value.DoubleValue
1.712

@<SCITEGIC>MOL_PROPERTY
Valence
SciTegic.value.DoubleValue
1.262

@<SCITEGIC>MOL_PROPERTY
Coulomb
SciTegic.value.DoubleValue
44.179

@<SCITEGIC>MOL_PROPERTY
VdW
SciTegic.value.DoubleValue
0.255

@<SCITEGIC>MOL_PROPERTY
VdW6
SciTegic.value.DoubleValue
-3.552

@<SCITEGIC>MOL_PROPERTY
VdW12
SciTegic.value.DoubleValue
3.807

@<SCITEGIC>MOL_PROPERTY
Bond
SciTegic.value.DoubleValue
0.125

@<SCITEGIC>MOL_PROPERTY
Angle
SciTegic.value.DoubleValue
0.616

@<SCITEGIC>MOL_PROPERTY
Pdih
SciTegic.value.DoubleValue
0.521

@<SCITEGIC>MOL_PROPERTY
Idih
SciTegic.value.DoubleValue
0.000

@<SCITEGIC>MOL_PROPERTY
Tether
SciTegic.value.DoubleValue
0.000

@<TRIPOS>MOLECULE
guest-1_confgen4.mol2 : confsearch ligand conformer 73
          17          16           1
SMALL
USER_CHARGES
 
@<TRIPOS>ATOM
       1    N1      21.162595   16.819492   21.273165 N.4        1 MOL1        -0.5891
       2    H1      21.518934   16.998057   20.329326 H          1 MOL1         0.3726
       3    H2      20.328249   16.233261   21.173677 H          1 MOL1         0.3726
       4    H3      21.868029   16.251653   21.753613 H          1 MOL1         0.3726
       5    C1      20.868091   18.104228   22.021548 C.3        1 MOL1         0.0314
       6    H4      21.803973   18.661508   22.116864 H          1 MOL1         0.0999
       7    H5      20.523641   17.839107   23.024838 H          1 MOL1         0.0999
       8    C2      19.811407   18.982407   21.326939 C.3        1 MOL1        -0.1308
       9    H6      20.153770   19.233782   20.314225 H          1 MOL1         0.1025
      10    H7      18.877809   18.414270   21.219209 H          1 MOL1         0.1025
      11    C3      19.541475   20.279443   22.120887 C.3        1 MOL1        -0.1243
      12    H8      20.476307   20.846970   22.231921 H          1 MOL1         0.1025
      13    H9      19.201835   20.028470   23.135768 H          1 MOL1         0.1025
      14    C4      18.482461   21.165547   21.430044 C.3        1 MOL1        -0.2258
      15    H10     18.305248   22.081099   22.009190 H          1 MOL1         0.1036
      16    H11     17.525034   20.636722   21.335789 H          1 MOL1         0.1036
      17    H12     18.809549   21.461630   20.424780 H          1 MOL1         0.1036
@<TRIPOS>BOND
    1     1     2    1
    2     1     3    1
    3     1     4    1
    4     1     5    1
    5     5     6    1
    6     5     7    1
    7     5     8    1
    8     8     9    1
    9     8    10    1
   10     8    11    1
   11    11    12    1
   12    11    13    1
   13    11    14    1
   14    14    15    1
   15    14    16    1
   16    14    17    1
@<TRIPOS>SUBSTRUCTURE
       1 MOL1            1 RESIDUE      1      MOL     
@<SCITEGIC>MOL_PROPERTY
VConf Rank
SciTegic.value.IntegerValue
73

@<SCITEGIC>MOL_PROPERTY
Conf_Id
SciTegic.value.IntegerValue
7

@<SCITEGIC>MOL_PROPERTY
Delta U+W
SciTegic.value.DoubleValue
0.000

@<SCITEGIC>MOL_PROPERTY
U+W
SciTegic.value.DoubleValue
-15.865

@<SCITEGIC>MOL_PROPERTY
Grad RMS
SciTegic.value.DoubleValue
0.000000

@<SCITEGIC>MOL_PROPERTY
U
SciTegic.value.DoubleValue
44.664

@<SCITEGIC>MOL_PROPERTY
W
SciTegic.value.DoubleValue
-60.529

@<SCITEGIC>MOL_PROPERTY
W(PB)
SciTegic.value.DoubleValue
-62.309

@<SCITEGIC>MOL_PROPERTY
W(SA)
SciTegic.value.DoubleValue
1.780

@<SCITEGIC>MOL_PROPERTY
Valence
SciTegic.value.DoubleValue
0.872

@<SCITEGIC>MOL_PROPERTY
Coulomb
SciTegic.value.DoubleValue
43.648

@<SCITEGIC>MOL_PROPERTY
VdW
SciTegic.value.DoubleValue
0.144

@<SCITEGIC>MOL_PROPERTY
VdW6
SciTegic.value.DoubleValue
-2.370

@<SCITEGIC>MOL_PROPERTY
VdW12
SciTegic.value.DoubleValue
2.515

@<SCITEGIC>MOL_PROPERTY
Bond
SciTegic.value.DoubleValue
0.080

@<SCITEGIC>MOL_PROPERTY
Angle
SciTegic.value.DoubleValue
0.376

@<SCITEGIC>MOL_PROPERTY
Pdih
SciTegic.value.DoubleValue
0.416

@<SCITEGIC>MOL_PROPERTY
Idih
SciTegic.value.DoubleValue
0.000

@<SCITEGIC>MOL_PROPERTY
Tether
SciTegic.value.DoubleValue
0.000

@<TRIPOS>MOLECULE
guest-1_confgen4.mol2 : confsearch ligand conformer 74
          17          16           1
SMALL
USER_CHARGES
 
@<TRIPOS>ATOM
       1    N1      18.740541   17.389253   20.394336 N.4        1 MOL1        -0.5891
       2    H1      19.422568   16.799352   19.908019 H          1 MOL1         0.3726
       3    H2      18.311392   17.996401   19.689461 H          1 MOL1         0.3726
       4    H3      18.002358   16.766669   20.738310 H          1 MOL1         0.3726
       5    C1      19.376070   18.184405   21.517364 C.3        1 MOL1         0.0314
       6    H4      19.784795   17.476459   22.243424 H          1 MOL1         0.0999
       7    H5      18.588073   18.761929   22.007636 H          1 MOL1         0.0999
       8    C2      20.490987   19.131886   21.034456 C.3        1 MOL1        -0.1308
       9    H6      21.257415   18.547109   20.508623 H          1 MOL1         0.1025
      10    H7      20.080825   19.841845   20.303967 H          1 MOL1         0.1025
      11    C3      21.157843   19.908159   22.194071 C.3        1 MOL1        -0.1243
      12    H8      21.992280   20.500831   21.793526 H          1 MOL1         0.1025
      13    H9      21.598102   19.199188   22.909413 H          1 MOL1         0.1025
      14    C4      20.179156   20.850109   22.932216 C.3        1 MOL1        -0.2258
      15    H10     19.720126   21.565785   22.237792 H          1 MOL1         0.1036
      16    H11     20.706688   21.424607   23.704660 H          1 MOL1         0.1036
      17    H12     19.376161   20.289787   23.427524 H          1 MOL1         0.1036
@<TRIPOS>BOND
    1     1     2    1
    2     1     3    1
    3     1     4    1
    4     1     5    1
    5     5     6    1
    6     5     7    1
    7     5     8    1
    8     8     9    1
    9     8    10    1
   10     8    11    1
   11    11    12    1
   12    11    13    1
   13    11    14    1
   14    14    15    1
   15    14    16    1
   16    14    17    1
@<TRIPOS>SUBSTRUCTURE
       1 MOL1            1 RESIDUE      1      MOL     
@<SCITEGIC>MOL_PROPERTY
VConf Rank
SciTegic.value.IntegerValue
74

@<SCITEGIC>MOL_PROPERTY
Conf_Id
SciTegic.value.IntegerValue
36

@<SCITEGIC>MOL_PROPERTY
Delta U+W
SciTegic.value.DoubleValue
0.275

@<SCITEGIC>MOL_PROPERTY
U+W
SciTegic.value.DoubleValue
-15.590

@<SCITEGIC>MOL_PROPERTY
Grad RMS
SciTegic.value.DoubleValue
0.000000

@<SCITEGIC>MOL_PROPERTY
U
SciTegic.value.DoubleValue
45.174

@<SCITEGIC>MOL_PROPERTY
W
SciTegic.value.DoubleValue
-60.765

@<SCITEGIC>MOL_PROPERTY
W(PB)
SciTegic.value.DoubleValue
-62.518

@<SCITEGIC>MOL_PROPERTY
W(SA)
SciTegic.value.DoubleValue
1.754

@<SCITEGIC>MOL_PROPERTY
Valence
SciTegic.value.DoubleValue
1.161

@<SCITEGIC>MOL_PROPERTY
Coulomb
SciTegic.value.DoubleValue
43.789

@<SCITEGIC>MOL_PROPERTY
VdW
SciTegic.value.DoubleValue
0.224

@<SCITEGIC>MOL_PROPERTY
VdW6
SciTegic.value.DoubleValue
-2.897

@<SCITEGIC>MOL_PROPERTY
VdW12
SciTegic.value.DoubleValue
3.121

@<SCITEGIC>MOL_PROPERTY
Bond
SciTegic.value.DoubleValue
0.100

@<SCITEGIC>MOL_PROPERTY
Angle
SciTegic.value.DoubleValue
0.500

@<SCITEGIC>MOL_PROPERTY
Pdih
SciTegic.value.DoubleValue
0.561

@<SCITEGIC>MOL_PROPERTY
Idih
SciTegic.value.DoubleValue
0.000

@<SCITEGIC>MOL_PROPERTY
Tether
SciTegic.value.DoubleValue
0.000

@<TRIPOS>MOLECULE
guest-1_confgen4.mol2 : confsearch ligand conformer 75
          17          16           1
SMALL
USER_CHARGES
 
@<TRIPOS>ATOM
       1    N1      21.095635   17.963556   22.634833 N.4        1 MOL1        -0.5891
       2    H1      20.122617   17.825400   22.919426 H          1 MOL1         0.3726
       3    H2      21.518234   18.608347   23.309469 H          1 MOL1         0.3726
       4    H3      21.573602   17.063359   22.744444 H          1 MOL1         0.3726
       5    C1      21.197272   18.487085   21.215108 C.3        1 MOL1         0.0314
       6    H4      20.794333   17.731226   20.535682 H          1 MOL1         0.0999
       7    H5      22.261325   18.607225   20.993988 H          1 MOL1         0.0999
       8    C2      20.480303   19.833759   20.982652 C.3        1 MOL1        -0.1308
       9    H6      20.694647   20.521363   21.811499 H          1 MOL1         0.1025
      10    H7      20.917417   20.295698   20.087448 H          1 MOL1         0.1025
      11    C3      18.950669   19.717579   20.760332 C.3        1 MOL1        -0.1243
      12    H8      18.751354   19.077536   19.889332 H          1 MOL1         0.1025
      13    H9      18.562103   20.712549   20.501411 H          1 MOL1         0.1025
      14    C4      18.166115   19.185215   21.980965 C.3        1 MOL1        -0.2258
      15    H10     18.365098   18.121242   22.154293 H          1 MOL1         0.1036
      16    H11     17.086059   19.287817   21.813308 H          1 MOL1         0.1036
      17    H12     18.416414   19.745761   22.891070 H          1 MOL1         0.1036
@<TRIPOS>BOND
    1     1     2    1
    2     1     3    1
    3     1     4    1
    4     1     5    1
    5     5     6    1
    6     5     7    1
    7     5     8    1
    8     8     9    1
    9     8    10    1
   10     8    11    1
   11    11    12    1
   12    11    13    1
   13    11    14    1
   14    14    15    1
   15    14    16    1
   16    14    17    1
@<TRIPOS>SUBSTRUCTURE
       1 MOL1            1 RESIDUE      1      MOL     
@<SCITEGIC>MOL_PROPERTY
VConf Rank
SciTegic.value.IntegerValue
75

@<SCITEGIC>MOL_PROPERTY
Conf_Id
SciTegic.value.IntegerValue
19

@<SCITEGIC>MOL_PROPERTY
Delta U+W
SciTegic.value.DoubleValue
2.662

@<SCITEGIC>MOL_PROPERTY
U+W
SciTegic.value.DoubleValue
-13.203

@<SCITEGIC>MOL_PROPERTY
Grad RMS
SciTegic.value.DoubleValue
0.000000

@<SCITEGIC>MOL_PROPERTY
U
SciTegic.value.DoubleValue
47.423

@<SCITEGIC>MOL_PROPERTY
W
SciTegic.value.DoubleValue
-60.626

@<SCITEGIC>MOL_PROPERTY
W(PB)
SciTegic.value.DoubleValue
-62.328

@<SCITEGIC>MOL_PROPERTY
W(SA)
SciTegic.value.DoubleValue
1.702

@<SCITEGIC>MOL_PROPERTY
Valence
SciTegic.value.DoubleValue
2.414

@<SCITEGIC>MOL_PROPERTY
Coulomb
SciTegic.value.DoubleValue
44.831

@<SCITEGIC>MOL_PROPERTY
VdW
SciTegic.value.DoubleValue
0.178

@<SCITEGIC>MOL_PROPERTY
VdW6
SciTegic.value.DoubleValue
-3.743

@<SCITEGIC>MOL_PROPERTY
VdW12
SciTegic.value.DoubleValue
3.921

@<SCITEGIC>MOL_PROPERTY
Bond
SciTegic.value.DoubleValue
0.138

@<SCITEGIC>MOL_PROPERTY
Angle
SciTegic.value.DoubleValue
0.941

@<SCITEGIC>MOL_PROPERTY
Pdih
SciTegic.value.DoubleValue
1.335

@<SCITEGIC>MOL_PROPERTY
Idih
SciTegic.value.DoubleValue
0.000

@<SCITEGIC>MOL_PROPERTY
Tether
SciTegic.value.DoubleValue
0.000

@<TRIPOS>MOLECULE
guest-1_confgen4.mol2 : confsearch ligand conformer 76
          17          16           1
SMALL
USER_CHARGES
 
@<TRIPOS>ATOM
       1    N1      20.258270   18.247864   23.228350 N.4        1 MOL1        -0.5891
       2    H1      19.885595   17.734290   24.033445 H          1 MOL1         0.3726
       3    H2      21.211048   18.533581   23.473424 H          1 MOL1         0.3726
       4    H3      20.333207   17.582869   22.454392 H          1 MOL1         0.3726
       5    C1      19.389078   19.436671   22.866023 C.3        1 MOL1         0.0314
       6    H4      19.364217   20.092903   23.740253 H          1 MOL1         0.0999
       7    H5      18.371861   19.080852   22.681731 H          1 MOL1         0.0999
       8    C2      19.889871   20.240874   21.647797 C.3        1 MOL1        -0.1308
       9    H6      19.447299   21.244276   21.704029 H          1 MOL1         0.1025
      10    H7      20.976137   20.386698   21.714809 H          1 MOL1         0.1025
      11    C3      19.511651   19.629519   20.274516 C.3        1 MOL1        -0.1243
      12    H8      19.821977   20.330136   19.486592 H          1 MOL1         0.1025
      13    H9      18.418502   19.547634   20.194886 H          1 MOL1         0.1025
      14    C4      20.153362   18.252634   19.989430 C.3        1 MOL1        -0.2258
      15    H10     21.238586   18.277009   20.153276 H          1 MOL1         0.1036
      16    H11     19.980856   17.961341   18.945138 H          1 MOL1         0.1036
      17    H12     19.717693   17.467694   20.618510 H          1 MOL1         0.1036
@<TRIPOS>BOND
    1     1     2    1
    2     1     3    1
    3     1     4    1
    4     1     5    1
    5     5     6    1
    6     5     7    1
    7     5     8    1
    8     8     9    1
    9     8    10    1
   10     8    11    1
   11    11    12    1
   12    11    13    1
   13    11    14    1
   14    14    15    1
   15    14    16    1
   16    14    17    1
@<TRIPOS>SUBSTRUCTURE
       1 MOL1            1 RESIDUE      1      MOL     
@<SCITEGIC>MOL_PROPERTY
VConf Rank
SciTegic.value.IntegerValue
76

@<SCITEGIC>MOL_PROPERTY
Conf_Id
SciTegic.value.IntegerValue
44

@<SCITEGIC>MOL_PROPERTY
Delta U+W
SciTegic.value.DoubleValue
2.712

@<SCITEGIC>MOL_PROPERTY
U+W
SciTegic.value.DoubleValue
-13.153

@<SCITEGIC>MOL_PROPERTY
Grad RMS
SciTegic.value.DoubleValue
0.000000

@<SCITEGIC>MOL_PROPERTY
U
SciTegic.value.DoubleValue
47.423

@<SCITEGIC>MOL_PROPERTY
W
SciTegic.value.DoubleValue
-60.576

@<SCITEGIC>MOL_PROPERTY
W(PB)
SciTegic.value.DoubleValue
-62.262

@<SCITEGIC>MOL_PROPERTY
W(SA)
SciTegic.value.DoubleValue
1.687

@<SCITEGIC>MOL_PROPERTY
Valence
SciTegic.value.DoubleValue
2.414

@<SCITEGIC>MOL_PROPERTY
Coulomb
SciTegic.value.DoubleValue
44.831

@<SCITEGIC>MOL_PROPERTY
VdW
SciTegic.value.DoubleValue
0.178

@<SCITEGIC>MOL_PROPERTY
VdW6
SciTegic.value.DoubleValue
-3.743

@<SCITEGIC>MOL_PROPERTY
VdW12
SciTegic.value.DoubleValue
3.922

@<SCITEGIC>MOL_PROPERTY
Bond
SciTegic.value.DoubleValue
0.138

@<SCITEGIC>MOL_PROPERTY
Angle
SciTegic.value.DoubleValue
0.941

@<SCITEGIC>MOL_PROPERTY
Pdih
SciTegic.value.DoubleValue
1.335

@<SCITEGIC>MOL_PROPERTY
Idih
SciTegic.value.DoubleValue
0.000

@<SCITEGIC>MOL_PROPERTY
Tether
SciTegic.value.DoubleValue
0.000

@<TRIPOS>MOLECULE
guest-1_confgen4.mol2 : confsearch ligand conformer 77
          17          16           1
SMALL
USER_CHARGES
 
@<TRIPOS>ATOM
       1    N1      18.241439   19.165047   22.655798 N.4        1 MOL1        -0.5891
       2    H1      17.994903   19.340777   21.677644 H          1 MOL1         0.3726
       3    H2      18.174919   20.059703   23.150312 H          1 MOL1         0.3726
       4    H3      17.513523   18.556098   23.043077 H          1 MOL1         0.3726
       5    C1      19.620729   18.548110   22.785437 C.3        1 MOL1         0.0314
       6    H4      19.613541   17.587845   22.263284 H          1 MOL1         0.0999
       7    H5      19.800448   18.354393   23.846433 H          1 MOL1         0.0999
       8    C2      20.754177   19.434420   22.228957 C.3        1 MOL1        -0.1308
       9    H6      20.779287   20.379879   22.786833 H          1 MOL1         0.1025
      10    H7      21.714833   18.939277   22.423322 H          1 MOL1         0.1025
      11    C3      20.633251   19.734502   20.714069 C.3        1 MOL1        -0.1243
      12    H8      21.470626   20.379662   20.413278 H          1 MOL1         0.1025
      13    H9      19.719789   20.311273   20.515128 H          1 MOL1         0.1025
      14    C4      20.643762   18.458562   19.841336 C.3        1 MOL1        -0.2258
      15    H10     21.549149   17.864580   20.021690 H          1 MOL1         0.1036
      16    H11     20.622418   18.720829   18.775630 H          1 MOL1         0.1036
      17    H12     19.771848   17.823804   20.043321 H          1 MOL1         0.1036
@<TRIPOS>BOND
    1     1     2    1
    2     1     3    1
    3     1     4    1
    4     1     5    1
    5     5     6    1
    6     5     7    1
    7     5     8    1
    8     8     9    1
    9     8    10    1
   10     8    11    1
   11    11    12    1
   12    11    13    1
   13    11    14    1
   14    14    15    1
   15    14    16    1
   16    14    17    1
@<TRIPOS>SUBSTRUCTURE
       1 MOL1            1 RESIDUE      1      MOL     
@<SCITEGIC>MOL_PROPERTY
VConf Rank
SciTegic.value.IntegerValue
77

@<SCITEGIC>MOL_PROPERTY
Conf_Id
SciTegic.value.IntegerValue
1

@<SCITEGIC>MOL_PROPERTY
Delta U+W
SciTegic.value.DoubleValue
0.685

@<SCITEGIC>MOL_PROPERTY
U+W
SciTegic.value.DoubleValue
-15.179

@<SCITEGIC>MOL_PROPERTY
Grad RMS
SciTegic.value.DoubleValue
0.000000

@<SCITEGIC>MOL_PROPERTY
U
SciTegic.value.DoubleValue
45.697

@<SCITEGIC>MOL_PROPERTY
W
SciTegic.value.DoubleValue
-60.876

@<SCITEGIC>MOL_PROPERTY
W(PB)
SciTegic.value.DoubleValue
-62.586

@<SCITEGIC>MOL_PROPERTY
W(SA)
SciTegic.value.DoubleValue
1.710

@<SCITEGIC>MOL_PROPERTY
Valence
SciTegic.value.DoubleValue
1.263

@<SCITEGIC>MOL_PROPERTY
Coulomb
SciTegic.value.DoubleValue
44.179

@<SCITEGIC>MOL_PROPERTY
VdW
SciTegic.value.DoubleValue
0.255

@<SCITEGIC>MOL_PROPERTY
VdW6
SciTegic.value.DoubleValue
-3.552

@<SCITEGIC>MOL_PROPERTY
VdW12
SciTegic.value.DoubleValue
3.807

@<SCITEGIC>MOL_PROPERTY
Bond
SciTegic.value.DoubleValue
0.125

@<SCITEGIC>MOL_PROPERTY
Angle
SciTegic.value.DoubleValue
0.616

@<SCITEGIC>MOL_PROPERTY
Pdih
SciTegic.value.DoubleValue
0.521

@<SCITEGIC>MOL_PROPERTY
Idih
SciTegic.value.DoubleValue
0.000

@<SCITEGIC>MOL_PROPERTY
Tether
SciTegic.value.DoubleValue
0.000

@<TRIPOS>MOLECULE
guest-1_confgen4.mol2 : confsearch ligand conformer 78
          17          16           1
SMALL
USER_CHARGES
 
@<TRIPOS>ATOM
       1    N1      18.897129   17.736097   22.700951 N.4        1 MOL1        -0.5891
       2    H1      19.517605   17.117933   23.232232 H          1 MOL1         0.3726
       3    H2      18.879422   17.391430   21.736928 H          1 MOL1         0.3726
       4    H3      17.953795   17.609386   23.081388 H          1 MOL1         0.3726
       5    C1      19.344200   19.183488   22.771980 C.3        1 MOL1         0.0314
       6    H4      19.303030   19.493662   23.819660 H          1 MOL1         0.0999
       7    H5      18.626204   19.788416   22.212204 H          1 MOL1         0.0999
       8    C2      20.766044   19.423705   22.223730 C.3        1 MOL1        -0.1308
       9    H6      21.026817   20.479688   22.374395 H          1 MOL1         0.1025
      10    H7      21.484304   18.843715   22.818256 H          1 MOL1         0.1025
      11    C3      20.932194   19.066882   20.725521 C.3        1 MOL1        -0.1243
      12    H8      20.764023   17.992204   20.572421 H          1 MOL1         0.1025
      13    H9      21.973859   19.255758   20.430285 H          1 MOL1         0.1025
      14    C4      19.993777   19.877404   19.802360 C.3        1 MOL1        -0.2258
      15    H10     20.191148   19.640384   18.748873 H          1 MOL1         0.1036
      16    H11     20.143979   20.956546   19.936370 H          1 MOL1         0.1036
      17    H12     18.938454   19.651340   20.000189 H          1 MOL1         0.1036
@<TRIPOS>BOND
    1     1     2    1
    2     1     3    1
    3     1     4    1
    4     1     5    1
    5     5     6    1
    6     5     7    1
    7     5     8    1
    8     8     9    1
    9     8    10    1
   10     8    11    1
   11    11    12    1
   12    11    13    1
   13    11    14    1
   14    14    15    1
   15    14    16    1
   16    14    17    1
@<TRIPOS>SUBSTRUCTURE
       1 MOL1            1 RESIDUE      1      MOL     
@<SCITEGIC>MOL_PROPERTY
VConf Rank
SciTegic.value.IntegerValue
78

@<SCITEGIC>MOL_PROPERTY
Conf_Id
SciTegic.value.IntegerValue
43

@<SCITEGIC>MOL_PROPERTY
Delta U+W
SciTegic.value.DoubleValue
0.642

@<SCITEGIC>MOL_PROPERTY
U+W
SciTegic.value.DoubleValue
-15.222

@<SCITEGIC>MOL_PROPERTY
Grad RMS
SciTegic.value.DoubleValue
0.000000

@<SCITEGIC>MOL_PROPERTY
U
SciTegic.value.DoubleValue
45.697

@<SCITEGIC>MOL_PROPERTY
W
SciTegic.value.DoubleValue
-60.919

@<SCITEGIC>MOL_PROPERTY
W(PB)
SciTegic.value.DoubleValue
-62.631

@<SCITEGIC>MOL_PROPERTY
W(SA)
SciTegic.value.DoubleValue
1.712

@<SCITEGIC>MOL_PROPERTY
Valence
SciTegic.value.DoubleValue
1.262

@<SCITEGIC>MOL_PROPERTY
Coulomb
SciTegic.value.DoubleValue
44.179

@<SCITEGIC>MOL_PROPERTY
VdW
SciTegic.value.DoubleValue
0.255

@<SCITEGIC>MOL_PROPERTY
VdW6
SciTegic.value.DoubleValue
-3.552

@<SCITEGIC>MOL_PROPERTY
VdW12
SciTegic.value.DoubleValue
3.807

@<SCITEGIC>MOL_PROPERTY
Bond
SciTegic.value.DoubleValue
0.125

@<SCITEGIC>MOL_PROPERTY
Angle
SciTegic.value.DoubleValue
0.616

@<SCITEGIC>MOL_PROPERTY
Pdih
SciTegic.value.DoubleValue
0.521

@<SCITEGIC>MOL_PROPERTY
Idih
SciTegic.value.DoubleValue
0.000

@<SCITEGIC>MOL_PROPERTY
Tether
SciTegic.value.DoubleValue
0.000

@<TRIPOS>MOLECULE
guest-1_confgen4.mol2 : confsearch ligand conformer 79
          17          16           1
SMALL
USER_CHARGES
 
@<TRIPOS>ATOM
       1    N1      19.794688   16.542376   22.069494 N.4        1 MOL1        -0.5891
       2    H1      18.955456   16.569973   22.656542 H          1 MOL1         0.3726
       3    H2      20.599906   16.472273   22.699102 H          1 MOL1         0.3726
       4    H3      19.756355   15.666062   21.538916 H          1 MOL1         0.3726
       5    C1      19.889999   17.749469   21.157794 C.3        1 MOL1         0.0314
       6    H4      19.018845   17.743095   20.497057 H          1 MOL1         0.0999
       7    H5      20.787143   17.638016   20.542786 H          1 MOL1         0.0999
       8    C2      19.949541   19.084277   21.922650 C.3        1 MOL1        -0.1308
       9    H6      19.054516   19.185578   22.550870 H          1 MOL1         0.1025
      10    H7      20.816803   19.080921   22.596324 H          1 MOL1         0.1025
      11    C3      20.045824   20.286618   20.957961 C.3        1 MOL1        -0.1243
      12    H8      19.179650   20.288622   20.281157 H          1 MOL1         0.1025
      13    H9      20.939814   20.184139   20.326608 H          1 MOL1         0.1025
      14    C4      20.105884   21.629185   21.718133 C.3        1 MOL1        -0.2258
      15    H10     20.173894   22.469957   21.015619 H          1 MOL1         0.1036
      16    H11     20.982064   21.670906   22.378265 H          1 MOL1         0.1036
      17    H12     19.208025   21.776178   22.332503 H          1 MOL1         0.1036
@<TRIPOS>BOND
    1     1     2    1
    2     1     3    1
    3     1     4    1
    4     1     5    1
    5     5     6    1
    6     5     7    1
    7     5     8    1
    8     8     9    1
    9     8    10    1
   10     8    11    1
   11    11    12    1
   12    11    13    1
   13    11    14    1
   14    14    15    1
   15    14    16    1
   16    14    17    1
@<TRIPOS>SUBSTRUCTURE
       1 MOL1            1 RESIDUE      1      MOL     
@<SCITEGIC>MOL_PROPERTY
VConf Rank
SciTegic.value.IntegerValue
79

@<SCITEGIC>MOL_PROPERTY
Conf_Id
SciTegic.value.IntegerValue
7

@<SCITEGIC>MOL_PROPERTY
Delta U+W
SciTegic.value.DoubleValue
0.000

@<SCITEGIC>MOL_PROPERTY
U+W
SciTegic.value.DoubleValue
-15.865

@<SCITEGIC>MOL_PROPERTY
Grad RMS
SciTegic.value.DoubleValue
0.000000

@<SCITEGIC>MOL_PROPERTY
U
SciTegic.value.DoubleValue
44.664

@<SCITEGIC>MOL_PROPERTY
W
SciTegic.value.DoubleValue
-60.529

@<SCITEGIC>MOL_PROPERTY
W(PB)
SciTegic.value.DoubleValue
-62.309

@<SCITEGIC>MOL_PROPERTY
W(SA)
SciTegic.value.DoubleValue
1.780

@<SCITEGIC>MOL_PROPERTY
Valence
SciTegic.value.DoubleValue
0.872

@<SCITEGIC>MOL_PROPERTY
Coulomb
SciTegic.value.DoubleValue
43.648

@<SCITEGIC>MOL_PROPERTY
VdW
SciTegic.value.DoubleValue
0.144

@<SCITEGIC>MOL_PROPERTY
VdW6
SciTegic.value.DoubleValue
-2.370

@<SCITEGIC>MOL_PROPERTY
VdW12
SciTegic.value.DoubleValue
2.515

@<SCITEGIC>MOL_PROPERTY
Bond
SciTegic.value.DoubleValue
0.080

@<SCITEGIC>MOL_PROPERTY
Angle
SciTegic.value.DoubleValue
0.376

@<SCITEGIC>MOL_PROPERTY
Pdih
SciTegic.value.DoubleValue
0.416

@<SCITEGIC>MOL_PROPERTY
Idih
SciTegic.value.DoubleValue
0.000

@<SCITEGIC>MOL_PROPERTY
Tether
SciTegic.value.DoubleValue
0.000

@<TRIPOS>MOLECULE
guest-1_confgen4.mol2 : confsearch ligand conformer 80
          17          16           1
SMALL
USER_CHARGES
 
@<TRIPOS>ATOM
       1    N1      19.043805   19.943328   23.700448 N.4        1 MOL1        -0.5891
       2    H1      19.012348   20.966203   23.651597 H          1 MOL1         0.3726
       3    H2      19.836054   19.695196   24.300797 H          1 MOL1         0.3726
       4    H3      18.194968   19.643964   24.191061 H          1 MOL1         0.3726
       5    C1      19.153133   19.312330   22.326678 C.3        1 MOL1         0.0314
       6    H4      18.265083   19.593283   21.754103 H          1 MOL1         0.0999
       7    H5      19.149507   18.226748   22.454494 H          1 MOL1         0.0999
       8    C2      20.419512   19.741280   21.561011 C.3        1 MOL1        -0.1308
       9    H6      20.433416   20.835796   21.473156 H          1 MOL1         0.1025
      10    H7      21.311400   19.460590   22.136891 H          1 MOL1         0.1025
      11    C3      20.499596   19.121801   20.146148 C.3        1 MOL1        -0.1243
      12    H8      21.378811   19.529083   19.627414 H          1 MOL1         0.1025
      13    H9      19.623839   19.429064   19.557233 H          1 MOL1         0.1025
      14    C4      20.596174   17.579008   20.166596 C.3        1 MOL1        -0.2258
      15    H10     21.460946   17.245035   20.754607 H          1 MOL1         0.1036
      16    H11     20.712681   17.187112   19.147846 H          1 MOL1         0.1036
      17    H12     19.694108   17.123950   20.594719 H          1 MOL1         0.1036
@<TRIPOS>BOND
    1     1     2    1
    2     1     3    1
    3     1     4    1
    4     1     5    1
    5     5     6    1
    6     5     7    1
    7     5     8    1
    8     8     9    1
    9     8    10    1
   10     8    11    1
   11    11    12    1
   12    11    13    1
   13    11    14    1
   14    14    15    1
   15    14    16    1
   16    14    17    1
@<TRIPOS>SUBSTRUCTURE
       1 MOL1            1 RESIDUE      1      MOL     
@<SCITEGIC>MOL_PROPERTY
VConf Rank
SciTegic.value.IntegerValue
80

@<SCITEGIC>MOL_PROPERTY
Conf_Id
SciTegic.value.IntegerValue
36

@<SCITEGIC>MOL_PROPERTY
Delta U+W
SciTegic.value.DoubleValue
0.275

@<SCITEGIC>MOL_PROPERTY
U+W
SciTegic.value.DoubleValue
-15.590

@<SCITEGIC>MOL_PROPERTY
Grad RMS
SciTegic.value.DoubleValue
0.000000

@<SCITEGIC>MOL_PROPERTY
U
SciTegic.value.DoubleValue
45.174

@<SCITEGIC>MOL_PROPERTY
W
SciTegic.value.DoubleValue
-60.765

@<SCITEGIC>MOL_PROPERTY
W(PB)
SciTegic.value.DoubleValue
-62.518

@<SCITEGIC>MOL_PROPERTY
W(SA)
SciTegic.value.DoubleValue
1.754

@<SCITEGIC>MOL_PROPERTY
Valence
SciTegic.value.DoubleValue
1.161

@<SCITEGIC>MOL_PROPERTY
Coulomb
SciTegic.value.DoubleValue
43.789

@<SCITEGIC>MOL_PROPERTY
VdW
SciTegic.value.DoubleValue
0.224

@<SCITEGIC>MOL_PROPERTY
VdW6
SciTegic.value.DoubleValue
-2.897

@<SCITEGIC>MOL_PROPERTY
VdW12
SciTegic.value.DoubleValue
3.121

@<SCITEGIC>MOL_PROPERTY
Bond
SciTegic.value.DoubleValue
0.100

@<SCITEGIC>MOL_PROPERTY
Angle
SciTegic.value.DoubleValue
0.500

@<SCITEGIC>MOL_PROPERTY
Pdih
SciTegic.value.DoubleValue
0.561

@<SCITEGIC>MOL_PROPERTY
Idih
SciTegic.value.DoubleValue
0.000

@<SCITEGIC>MOL_PROPERTY
Tether
SciTegic.value.DoubleValue
0.000

@<TRIPOS>MOLECULE
guest-1_confgen4.mol2 : confsearch ligand conformer 81
          17          16           1
SMALL
USER_CHARGES
 
@<TRIPOS>ATOM
       1    N1      19.035393   20.528193   21.086348 N.4        1 MOL1        -0.5891
       2    H1      18.836499   19.751160   20.451126 H          1 MOL1         0.3726
       3    H2      19.730762   21.123232   20.626055 H          1 MOL1         0.3726
       4    H3      18.176227   21.081719   21.165505 H          1 MOL1         0.3726
       5    C1      19.518303   20.039606   22.438425 C.3        1 MOL1         0.0314
       6    H4      18.713485   19.469672   22.910383 H          1 MOL1         0.0999
       7    H5      19.707901   20.926106   23.049742 H          1 MOL1         0.0999
       8    C2      20.801220   19.183677   22.382545 C.3        1 MOL1        -0.1308
       9    H6      21.529217   19.642192   21.700260 H          1 MOL1         0.1025
      10    H7      21.264143   19.208780   23.377994 H          1 MOL1         0.1025
      11    C3      20.567385   17.699083   22.003062 C.3        1 MOL1        -0.1243
      12    H8      19.886512   17.234585   22.730162 H          1 MOL1         0.1025
      13    H9      21.522626   17.163533   22.096283 H          1 MOL1         0.1025
      14    C4      20.019720   17.483426   20.573924 C.3        1 MOL1        -0.2258
      15    H10     18.979172   17.817208   20.487166 H          1 MOL1         0.1036
      16    H11     20.038316   16.416448   20.316302 H          1 MOL1         0.1036
      17    H12     20.626316   18.016096   19.829977 H          1 MOL1         0.1036
@<TRIPOS>BOND
    1     1     2    1
    2     1     3    1
    3     1     4    1
    4     1     5    1
    5     5     6    1
    6     5     7    1
    7     5     8    1
    8     8     9    1
    9     8    10    1
   10     8    11    1
   11    11    12    1
   12    11    13    1
   13    11    14    1
   14    14    15    1
   15    14    16    1
   16    14    17    1
@<TRIPOS>SUBSTRUCTURE
       1 MOL1            1 RESIDUE      1      MOL     
@<SCITEGIC>MOL_PROPERTY
VConf Rank
SciTegic.value.IntegerValue
81

@<SCITEGIC>MOL_PROPERTY
Conf_Id
SciTegic.value.IntegerValue
19

@<SCITEGIC>MOL_PROPERTY
Delta U+W
SciTegic.value.DoubleValue
2.662

@<SCITEGIC>MOL_PROPERTY
U+W
SciTegic.value.DoubleValue
-13.203

@<SCITEGIC>MOL_PROPERTY
Grad RMS
SciTegic.value.DoubleValue
0.000000

@<SCITEGIC>MOL_PROPERTY
U
SciTegic.value.DoubleValue
47.423

@<SCITEGIC>MOL_PROPERTY
W
SciTegic.value.DoubleValue
-60.626

@<SCITEGIC>MOL_PROPERTY
W(PB)
SciTegic.value.DoubleValue
-62.328

@<SCITEGIC>MOL_PROPERTY
W(SA)
SciTegic.value.DoubleValue
1.702

@<SCITEGIC>MOL_PROPERTY
Valence
SciTegic.value.DoubleValue
2.414

@<SCITEGIC>MOL_PROPERTY
Coulomb
SciTegic.value.DoubleValue
44.831

@<SCITEGIC>MOL_PROPERTY
VdW
SciTegic.value.DoubleValue
0.178

@<SCITEGIC>MOL_PROPERTY
VdW6
SciTegic.value.DoubleValue
-3.743

@<SCITEGIC>MOL_PROPERTY
VdW12
SciTegic.value.DoubleValue
3.921

@<SCITEGIC>MOL_PROPERTY
Bond
SciTegic.value.DoubleValue
0.138

@<SCITEGIC>MOL_PROPERTY
Angle
SciTegic.value.DoubleValue
0.941

@<SCITEGIC>MOL_PROPERTY
Pdih
SciTegic.value.DoubleValue
1.335

@<SCITEGIC>MOL_PROPERTY
Idih
SciTegic.value.DoubleValue
0.000

@<SCITEGIC>MOL_PROPERTY
Tether
SciTegic.value.DoubleValue
0.000

@<TRIPOS>MOLECULE
guest-1_confgen4.mol2 : confsearch ligand conformer 82
          17          16           1
SMALL
USER_CHARGES
 
@<TRIPOS>ATOM
       1    N1      18.437112   19.511817   20.519247 N.4        1 MOL1        -0.5891
       2    H1      17.845972   20.265272   20.153620 H          1 MOL1         0.3726
       3    H2      17.971545   18.629457   20.286504 H          1 MOL1         0.3726
       4    H3      19.315549   19.535926   19.995213 H          1 MOL1         0.3726
       5    C1      18.668739   19.650194   22.011641 C.3        1 MOL1         0.0314
       6    H4      17.687411   19.612705   22.492395 H          1 MOL1         0.0999
       7    H5      19.103064   20.634372   22.206724 H          1 MOL1         0.0999
       8    C2      19.568147   18.552748   22.618510 C.3        1 MOL1        -0.1308
       9    H6      19.365769   18.512400   23.697056 H          1 MOL1         0.1025
      10    H7      19.281433   17.569997   22.221365 H          1 MOL1         0.1025
      11    C3      21.088143   18.788944   22.427395 C.3        1 MOL1        -0.1243
      12    H8      21.631629   18.012327   22.983705 H          1 MOL1         0.1025
      13    H9      21.373768   19.746543   22.885046 H          1 MOL1         0.1025
      14    C4      21.559155   18.760754   20.955583 C.3        1 MOL1        -0.2258
      15    H10     21.207123   17.856836   20.441620 H          1 MOL1         0.1036
      16    H11     22.655860   18.765582   20.906889 H          1 MOL1         0.1036
      17    H12     21.208792   19.640971   20.404090 H          1 MOL1         0.1036
@<TRIPOS>BOND
    1     1     2    1
    2     1     3    1
    3     1     4    1
    4     1     5    1
    5     5     6    1
    6     5     7    1
    7     5     8    1
    8     8     9    1
    9     8    10    1
   10     8    11    1
   11    11    12    1
   12    11    13    1
   13    11    14    1
   14    14    15    1
   15    14    16    1
   16    14    17    1
@<TRIPOS>SUBSTRUCTURE
       1 MOL1            1 RESIDUE      1      MOL     
@<SCITEGIC>MOL_PROPERTY
VConf Rank
SciTegic.value.IntegerValue
82

@<SCITEGIC>MOL_PROPERTY
Conf_Id
SciTegic.value.IntegerValue
44

@<SCITEGIC>MOL_PROPERTY
Delta U+W
SciTegic.value.DoubleValue
2.712

@<SCITEGIC>MOL_PROPERTY
U+W
SciTegic.value.DoubleValue
-13.153

@<SCITEGIC>MOL_PROPERTY
Grad RMS
SciTegic.value.DoubleValue
0.000000

@<SCITEGIC>MOL_PROPERTY
U
SciTegic.value.DoubleValue
47.423

@<SCITEGIC>MOL_PROPERTY
W
SciTegic.value.DoubleValue
-60.576

@<SCITEGIC>MOL_PROPERTY
W(PB)
SciTegic.value.DoubleValue
-62.262

@<SCITEGIC>MOL_PROPERTY
W(SA)
SciTegic.value.DoubleValue
1.687

@<SCITEGIC>MOL_PROPERTY
Valence
SciTegic.value.DoubleValue
2.414

@<SCITEGIC>MOL_PROPERTY
Coulomb
SciTegic.value.DoubleValue
44.831

@<SCITEGIC>MOL_PROPERTY
VdW
SciTegic.value.DoubleValue
0.178

@<SCITEGIC>MOL_PROPERTY
VdW6
SciTegic.value.DoubleValue
-3.743

@<SCITEGIC>MOL_PROPERTY
VdW12
SciTegic.value.DoubleValue
3.922

@<SCITEGIC>MOL_PROPERTY
Bond
SciTegic.value.DoubleValue
0.138

@<SCITEGIC>MOL_PROPERTY
Angle
SciTegic.value.DoubleValue
0.941

@<SCITEGIC>MOL_PROPERTY
Pdih
SciTegic.value.DoubleValue
1.335

@<SCITEGIC>MOL_PROPERTY
Idih
SciTegic.value.DoubleValue
0.000

@<SCITEGIC>MOL_PROPERTY
Tether
SciTegic.value.DoubleValue
0.000

@<TRIPOS>MOLECULE
guest-1_confgen4.mol2 : confsearch ligand conformer 83
          17          16           1
SMALL
USER_CHARGES
 
@<TRIPOS>ATOM
       1    N1      19.193795   17.191408   21.686202 N.4        1 MOL1        -0.5891
       2    H1      18.708527   17.669444   20.921714 H          1 MOL1         0.3726
       3    H2      18.522216   17.086655   22.452614 H          1 MOL1         0.3726
       4    H3      19.417004   16.247405   21.354984 H          1 MOL1         0.3726
       5    C1      20.435907   17.944834   22.121361 C.3        1 MOL1         0.0314
       6    H4      21.118770   17.994492   21.269284 H          1 MOL1         0.0999
       7    H5      20.920391   17.361374   22.909009 H          1 MOL1         0.0999
       8    C2      20.150121   19.368373   22.642689 C.3        1 MOL1        -0.1308
       9    H6      19.496497   19.305412   23.522780 H          1 MOL1         0.1025
      10    H7      21.092548   19.809951   22.992894 H          1 MOL1         0.1025
      11    C3      19.507589   20.307155   21.591310 C.3        1 MOL1        -0.1243
      12    H8      19.328594   21.287478   22.054810 H          1 MOL1         0.1025
      13    H9      18.520037   19.925855   21.298041 H          1 MOL1         0.1025
      14    C4      20.386010   20.499144   20.333806 C.3        1 MOL1        -0.2258
      15    H10     21.379754   20.881273   20.601233 H          1 MOL1         0.1036
      16    H11     19.923655   21.220506   19.647634 H          1 MOL1         0.1036
      17    H12     20.517227   19.558004   19.785185 H          1 MOL1         0.1036
@<TRIPOS>BOND
    1     1     2    1
    2     1     3    1
    3     1     4    1
    4     1     5    1
    5     5     6    1
    6     5     7    1
    7     5     8    1
    8     8     9    1
    9     8    10    1
   10     8    11    1
   11    11    12    1
   12    11    13    1
   13    11    14    1
   14    14    15    1
   15    14    16    1
   16    14    17    1
@<TRIPOS>SUBSTRUCTURE
       1 MOL1            1 RESIDUE      1      MOL     
@<SCITEGIC>MOL_PROPERTY
VConf Rank
SciTegic.value.IntegerValue
83

@<SCITEGIC>MOL_PROPERTY
Conf_Id
SciTegic.value.IntegerValue
1

@<SCITEGIC>MOL_PROPERTY
Delta U+W
SciTegic.value.DoubleValue
0.685

@<SCITEGIC>MOL_PROPERTY
U+W
SciTegic.value.DoubleValue
-15.179

@<SCITEGIC>MOL_PROPERTY
Grad RMS
SciTegic.value.DoubleValue
0.000000

@<SCITEGIC>MOL_PROPERTY
U
SciTegic.value.DoubleValue
45.697

@<SCITEGIC>MOL_PROPERTY
W
SciTegic.value.DoubleValue
-60.876

@<SCITEGIC>MOL_PROPERTY
W(PB)
SciTegic.value.DoubleValue
-62.586

@<SCITEGIC>MOL_PROPERTY
W(SA)
SciTegic.value.DoubleValue
1.710

@<SCITEGIC>MOL_PROPERTY
Valence
SciTegic.value.DoubleValue
1.263

@<SCITEGIC>MOL_PROPERTY
Coulomb
SciTegic.value.DoubleValue
44.179

@<SCITEGIC>MOL_PROPERTY
VdW
SciTegic.value.DoubleValue
0.255

@<SCITEGIC>MOL_PROPERTY
VdW6
SciTegic.value.DoubleValue
-3.552

@<SCITEGIC>MOL_PROPERTY
VdW12
SciTegic.value.DoubleValue
3.807

@<SCITEGIC>MOL_PROPERTY
Bond
SciTegic.value.DoubleValue
0.125

@<SCITEGIC>MOL_PROPERTY
Angle
SciTegic.value.DoubleValue
0.616

@<SCITEGIC>MOL_PROPERTY
Pdih
SciTegic.value.DoubleValue
0.521

@<SCITEGIC>MOL_PROPERTY
Idih
SciTegic.value.DoubleValue
0.000

@<SCITEGIC>MOL_PROPERTY
Tether
SciTegic.value.DoubleValue
0.000

@<TRIPOS>MOLECULE
guest-1_confgen4.mol2 : confsearch ligand conformer 84
          17          16           1
SMALL
USER_CHARGES
 
@<TRIPOS>ATOM
       1    N1      21.890146   19.213388   21.370190 N.4        1 MOL1        -0.5891
       2    H1      22.381690   18.355374   21.637726 H          1 MOL1         0.3726
       3    H2      21.641028   19.701735   22.235005 H          1 MOL1         0.3726
       4    H3      22.568279   19.803707   20.877924 H          1 MOL1         0.3726
       5    C1      20.670226   18.923991   20.517018 C.3        1 MOL1         0.0314
       6    H4      21.013313   18.438860   19.599153 H          1 MOL1         0.0999
       7    H5      20.212816   19.878445   20.243892 H          1 MOL1         0.0999
       8    C2      19.624863   18.025402   21.209605 C.3        1 MOL1        -0.1308
       9    H6      18.813858   17.818107   20.498899 H          1 MOL1         0.1025
      10    H7      20.082094   17.054759   21.443140 H          1 MOL1         0.1025
      11    C3      19.026322   18.635763   22.501412 C.3        1 MOL1        -0.1243
      12    H8      19.812490   18.764144   23.257794 H          1 MOL1         0.1025
      13    H9      18.307483   17.922985   22.929340 H          1 MOL1         0.1025
      14    C4      18.311826   19.985022   22.258936 C.3        1 MOL1        -0.2258
      15    H10     17.848049   20.347108   23.185636 H          1 MOL1         0.1036
      16    H11     17.519452   19.882245   21.506176 H          1 MOL1         0.1036
      17    H12     19.012051   20.757004   21.915896 H          1 MOL1         0.1036
@<TRIPOS>BOND
    1     1     2    1
    2     1     3    1
    3     1     4    1
    4     1     5    1
    5     5     6    1
    6     5     7    1
    7     5     8    1
    8     8     9    1
    9     8    10    1
   10     8    11    1
   11    11    12    1
   12    11    13    1
   13    11    14    1
   14    14    15    1
   15    14    16    1
   16    14    17    1
@<TRIPOS>SUBSTRUCTURE
       1 MOL1            1 RESIDUE      1      MOL     
@<SCITEGIC>MOL_PROPERTY
VConf Rank
SciTegic.value.IntegerValue
84

@<SCITEGIC>MOL_PROPERTY
Conf_Id
SciTegic.value.IntegerValue
43

@<SCITEGIC>MOL_PROPERTY
Delta U+W
SciTegic.value.DoubleValue
0.642

@<SCITEGIC>MOL_PROPERTY
U+W
SciTegic.value.DoubleValue
-15.222

@<SCITEGIC>MOL_PROPERTY
Grad RMS
SciTegic.value.DoubleValue
0.000000

@<SCITEGIC>MOL_PROPERTY
U
SciTegic.value.DoubleValue
45.697

@<SCITEGIC>MOL_PROPERTY
W
SciTegic.value.DoubleValue
-60.919

@<SCITEGIC>MOL_PROPERTY
W(PB)
SciTegic.value.DoubleValue
-62.631

@<SCITEGIC>MOL_PROPERTY
W(SA)
SciTegic.value.DoubleValue
1.712

@<SCITEGIC>MOL_PROPERTY
Valence
SciTegic.value.DoubleValue
1.262

@<SCITEGIC>MOL_PROPERTY
Coulomb
SciTegic.value.DoubleValue
44.179

@<SCITEGIC>MOL_PROPERTY
VdW
SciTegic.value.DoubleValue
0.255

@<SCITEGIC>MOL_PROPERTY
VdW6
SciTegic.value.DoubleValue
-3.552

@<SCITEGIC>MOL_PROPERTY
VdW12
SciTegic.value.DoubleValue
3.807

@<SCITEGIC>MOL_PROPERTY
Bond
SciTegic.value.DoubleValue
0.125

@<SCITEGIC>MOL_PROPERTY
Angle
SciTegic.value.DoubleValue
0.616

@<SCITEGIC>MOL_PROPERTY
Pdih
SciTegic.value.DoubleValue
0.521

@<SCITEGIC>MOL_PROPERTY
Idih
SciTegic.value.DoubleValue
0.000

@<SCITEGIC>MOL_PROPERTY
Tether
SciTegic.value.DoubleValue
0.000

@<TRIPOS>MOLECULE
guest-1_confgen4.mol2 : confsearch ligand conformer 85
          17          16           1
SMALL
USER_CHARGES
 
@<TRIPOS>ATOM
       1    N1      19.693286   17.128178   23.270618 N.4        1 MOL1        -0.5891
       2    H1      20.235925   17.539109   24.036370 H          1 MOL1         0.3726
       3    H2      20.304796   16.457987   22.794596 H          1 MOL1         0.3726
       4    H3      18.937451   16.585637   23.701050 H          1 MOL1         0.3726
       5    C1      19.160066   18.183481   22.322269 C.3        1 MOL1         0.0314
       6    H4      18.495043   18.841202   22.888547 H          1 MOL1         0.0999
       7    H5      18.569061   17.678648   21.553257 H          1 MOL1         0.0999
       8    C2      20.269836   19.017986   21.657232 C.3        1 MOL1        -0.1308
       9    H6      20.870743   19.511046   22.432985 H          1 MOL1         0.1025
      10    H7      20.944412   18.352519   21.102174 H          1 MOL1         0.1025
      11    C3      19.684482   20.079815   20.700465 C.3        1 MOL1        -0.1243
      12    H8      19.006560   20.744220   21.254824 H          1 MOL1         0.1025
      13    H9      19.080204   19.587114   19.925597 H          1 MOL1         0.1025
      14    C4      20.791949   20.920922   20.029637 C.3        1 MOL1        -0.2258
      15    H10     20.355854   21.668697   19.354580 H          1 MOL1         0.1036
      16    H11     21.466465   20.287446   19.438924 H          1 MOL1         0.1036
      17    H12     21.392276   21.453637   20.778657 H          1 MOL1         0.1036
@<TRIPOS>BOND
    1     1     2    1
    2     1     3    1
    3     1     4    1
    4     1     5    1
    5     5     6    1
    6     5     7    1
    7     5     8    1
    8     8     9    1
    9     8    10    1
   10     8    11    1
   11    11    12    1
   12    11    13    1
   13    11    14    1
   14    14    15    1
   15    14    16    1
   16    14    17    1
@<TRIPOS>SUBSTRUCTURE
       1 MOL1            1 RESIDUE      1      MOL     
@<SCITEGIC>MOL_PROPERTY
VConf Rank
SciTegic.value.IntegerValue
85

@<SCITEGIC>MOL_PROPERTY
Conf_Id
SciTegic.value.IntegerValue
7

@<SCITEGIC>MOL_PROPERTY
Delta U+W
SciTegic.value.DoubleValue
0.000

@<SCITEGIC>MOL_PROPERTY
U+W
SciTegic.value.DoubleValue
-15.865

@<SCITEGIC>MOL_PROPERTY
Grad RMS
SciTegic.value.DoubleValue
0.000000

@<SCITEGIC>MOL_PROPERTY
U
SciTegic.value.DoubleValue
44.664

@<SCITEGIC>MOL_PROPERTY
W
SciTegic.value.DoubleValue
-60.529

@<SCITEGIC>MOL_PROPERTY
W(PB)
SciTegic.value.DoubleValue
-62.309

@<SCITEGIC>MOL_PROPERTY
W(SA)
SciTegic.value.DoubleValue
1.780

@<SCITEGIC>MOL_PROPERTY
Valence
SciTegic.value.DoubleValue
0.872

@<SCITEGIC>MOL_PROPERTY
Coulomb
SciTegic.value.DoubleValue
43.648

@<SCITEGIC>MOL_PROPERTY
VdW
SciTegic.value.DoubleValue
0.144

@<SCITEGIC>MOL_PROPERTY
VdW6
SciTegic.value.DoubleValue
-2.370

@<SCITEGIC>MOL_PROPERTY
VdW12
SciTegic.value.DoubleValue
2.515

@<SCITEGIC>MOL_PROPERTY
Bond
SciTegic.value.DoubleValue
0.080

@<SCITEGIC>MOL_PROPERTY
Angle
SciTegic.value.DoubleValue
0.376

@<SCITEGIC>MOL_PROPERTY
Pdih
SciTegic.value.DoubleValue
0.416

@<SCITEGIC>MOL_PROPERTY
Idih
SciTegic.value.DoubleValue
0.000

@<SCITEGIC>MOL_PROPERTY
Tether
SciTegic.value.DoubleValue
0.000

@<TRIPOS>MOLECULE
guest-1_confgen4.mol2 : confsearch ligand conformer 86
          17          16           1
SMALL
USER_CHARGES
 
@<TRIPOS>ATOM
       1    N1      22.206189   19.771095   22.049717 N.4        1 MOL1        -0.5891
       2    H1      22.280518   20.073962   23.025624 H          1 MOL1         0.3726
       3    H2      22.212959   20.616587   21.471146 H          1 MOL1         0.3726
       4    H3      23.065967   19.256685   21.832906 H          1 MOL1         0.3726
       5    C1      20.969350   18.928620   21.809254 C.3        1 MOL1         0.0314
       6    H4      21.043463   18.033770   22.433081 H          1 MOL1         0.0999
       7    H5      20.973458   18.617486   20.761391 H          1 MOL1         0.0999
       8    C2      19.657632   19.672534   22.125393 C.3        1 MOL1        -0.1308
       9    H6      19.680854   20.015469   23.168338 H          1 MOL1         0.1025
      10    H7      19.584011   20.572191   21.500024 H          1 MOL1         0.1025
      11    C3      18.405403   18.789872   21.913648 C.3        1 MOL1        -0.1243
      12    H8      17.515390   19.350754   22.231879 H          1 MOL1         0.1025
      13    H9      18.461630   17.905274   22.563653 H          1 MOL1         0.1025
      14    C4      18.221751   18.344015   20.444825 C.3        1 MOL1        -0.2258
      15    H10     18.168627   19.210329   19.772662 H          1 MOL1         0.1036
      16    H11     17.291226   17.773236   20.329320 H          1 MOL1         0.1036
      17    H12     19.046953   17.701894   20.111939 H          1 MOL1         0.1036
@<TRIPOS>BOND
    1     1     2    1
    2     1     3    1
    3     1     4    1
    4     1     5    1
    5     5     6    1
    6     5     7    1
    7     5     8    1
    8     8     9    1
    9     8    10    1
   10     8    11    1
   11    11    12    1
   12    11    13    1
   13    11    14    1
   14    14    15    1
   15    14    16    1
   16    14    17    1
@<TRIPOS>SUBSTRUCTURE
       1 MOL1            1 RESIDUE      1      MOL     
@<SCITEGIC>MOL_PROPERTY
VConf Rank
SciTegic.value.IntegerValue
86

@<SCITEGIC>MOL_PROPERTY
Conf_Id
SciTegic.value.IntegerValue
36

@<SCITEGIC>MOL_PROPERTY
Delta U+W
SciTegic.value.DoubleValue
0.275

@<SCITEGIC>MOL_PROPERTY
U+W
SciTegic.value.DoubleValue
-15.590

@<SCITEGIC>MOL_PROPERTY
Grad RMS
SciTegic.value.DoubleValue
0.000000

@<SCITEGIC>MOL_PROPERTY
U
SciTegic.value.DoubleValue
45.174

@<SCITEGIC>MOL_PROPERTY
W
SciTegic.value.DoubleValue
-60.765

@<SCITEGIC>MOL_PROPERTY
W(PB)
SciTegic.value.DoubleValue
-62.518

@<SCITEGIC>MOL_PROPERTY
W(SA)
SciTegic.value.DoubleValue
1.754

@<SCITEGIC>MOL_PROPERTY
Valence
SciTegic.value.DoubleValue
1.161

@<SCITEGIC>MOL_PROPERTY
Coulomb
SciTegic.value.DoubleValue
43.789

@<SCITEGIC>MOL_PROPERTY
VdW
SciTegic.value.DoubleValue
0.224

@<SCITEGIC>MOL_PROPERTY
VdW6
SciTegic.value.DoubleValue
-2.897

@<SCITEGIC>MOL_PROPERTY
VdW12
SciTegic.value.DoubleValue
3.121

@<SCITEGIC>MOL_PROPERTY
Bond
SciTegic.value.DoubleValue
0.100

@<SCITEGIC>MOL_PROPERTY
Angle
SciTegic.value.DoubleValue
0.500

@<SCITEGIC>MOL_PROPERTY
Pdih
SciTegic.value.DoubleValue
0.561

@<SCITEGIC>MOL_PROPERTY
Idih
SciTegic.value.DoubleValue
0.000

@<SCITEGIC>MOL_PROPERTY
Tether
SciTegic.value.DoubleValue
0.000

@<TRIPOS>MOLECULE
guest-1_confgen4.mol2 : confsearch ligand conformer 87
          17          16           1
SMALL
USER_CHARGES
 
@<TRIPOS>ATOM
       1    N1      21.482431   18.871078   22.629880 N.4        1 MOL1        -0.5891
       2    H1      20.792303   18.171831   22.915575 H          1 MOL1         0.3726
       3    H2      21.430750   19.639135   23.305822 H          1 MOL1         0.3726
       4    H3      22.408043   18.443520   22.735988 H          1 MOL1         0.3726
       5    C1      21.242124   19.351475   21.211606 C.3        1 MOL1         0.0314
       6    H4      21.376656   18.506903   20.530503 H          1 MOL1         0.0999
       7    H5      22.015824   20.091378   20.989186 H          1 MOL1         0.0999
       8    C2      19.855672   19.990019   20.984395 C.3        1 MOL1        -0.1308
       9    H6      19.612769   20.665900   21.815004 H          1 MOL1         0.1025
      10    H7      19.921335   20.623625   20.089924 H          1 MOL1         0.1025
      11    C3      18.707554   18.972174   20.764120 C.3        1 MOL1        -0.1243
      12    H8      18.933508   18.343313   19.891480 H          1 MOL1         0.1025
      13    H9      17.795298   19.529504   20.508853 H          1 MOL1         0.1025
      14    C4      18.408921   18.071760   21.984347 C.3        1 MOL1        -0.2258
      15    H10     19.211744   17.344894   22.154108 H          1 MOL1         0.1036
      16    H11     17.486482   17.500076   21.818699 H          1 MOL1         0.1036
      17    H12     18.271784   18.668130   22.895769 H          1 MOL1         0.1036
@<TRIPOS>BOND
    1     1     2    1
    2     1     3    1
    3     1     4    1
    4     1     5    1
    5     5     6    1
    6     5     7    1
    7     5     8    1
    8     8     9    1
    9     8    10    1
   10     8    11    1
   11    11    12    1
   12    11    13    1
   13    11    14    1
   14    14    15    1
   15    14    16    1
   16    14    17    1
@<TRIPOS>SUBSTRUCTURE
       1 MOL1            1 RESIDUE      1      MOL     
@<SCITEGIC>MOL_PROPERTY
VConf Rank
SciTegic.value.IntegerValue
87

@<SCITEGIC>MOL_PROPERTY
Conf_Id
SciTegic.value.IntegerValue
19

@<SCITEGIC>MOL_PROPERTY
Delta U+W
SciTegic.value.DoubleValue
2.662

@<SCITEGIC>MOL_PROPERTY
U+W
SciTegic.value.DoubleValue
-13.203

@<SCITEGIC>MOL_PROPERTY
Grad RMS
SciTegic.value.DoubleValue
0.000000

@<SCITEGIC>MOL_PROPERTY
U
SciTegic.value.DoubleValue
47.423

@<SCITEGIC>MOL_PROPERTY
W
SciTegic.value.DoubleValue
-60.626

@<SCITEGIC>MOL_PROPERTY
W(PB)
SciTegic.value.DoubleValue
-62.328

@<SCITEGIC>MOL_PROPERTY
W(SA)
SciTegic.value.DoubleValue
1.702

@<SCITEGIC>MOL_PROPERTY
Valence
SciTegic.value.DoubleValue
2.414

@<SCITEGIC>MOL_PROPERTY
Coulomb
SciTegic.value.DoubleValue
44.831

@<SCITEGIC>MOL_PROPERTY
VdW
SciTegic.value.DoubleValue
0.178

@<SCITEGIC>MOL_PROPERTY
VdW6
SciTegic.value.DoubleValue
-3.743

@<SCITEGIC>MOL_PROPERTY
VdW12
SciTegic.value.DoubleValue
3.921

@<SCITEGIC>MOL_PROPERTY
Bond
SciTegic.value.DoubleValue
0.138

@<SCITEGIC>MOL_PROPERTY
Angle
SciTegic.value.DoubleValue
0.941

@<SCITEGIC>MOL_PROPERTY
Pdih
SciTegic.value.DoubleValue
1.335

@<SCITEGIC>MOL_PROPERTY
Idih
SciTegic.value.DoubleValue
0.000

@<SCITEGIC>MOL_PROPERTY
Tether
SciTegic.value.DoubleValue
0.000

@<TRIPOS>MOLECULE
guest-1_confgen4.mol2 : confsearch ligand conformer 88
          17          16           1
SMALL
USER_CHARGES
 
@<TRIPOS>ATOM
       1    N1      20.712933   17.704210   22.559421 N.4        1 MOL1        -0.5891
       2    H1      20.659435   17.068644   23.361928 H          1 MOL1         0.3726
       3    H2      21.672280   17.653389   22.203683 H          1 MOL1         0.3726
       4    H3      20.101768   17.324289   21.832110 H          1 MOL1         0.3726
       5    C1      20.325694   19.121499   22.935420 C.3        1 MOL1         0.0314
       6    H4      21.024376   19.449080   23.710063 H          1 MOL1         0.0999
       7    H5      19.322783   19.104581   23.370374 H          1 MOL1         0.0999
       8    C2      20.369519   20.123504   21.762528 C.3        1 MOL1        -0.1308
       9    H6      20.454105   21.132643   22.187180 H          1 MOL1         0.1025
      10    H7      21.281034   19.968707   21.170154 H          1 MOL1         0.1025
      11    C3      19.119685   20.095372   20.846106 C.3        1 MOL1        -0.1243
      12    H8      19.207696   20.911964   20.115749 H          1 MOL1         0.1025
      13    H9      18.221058   20.314409   21.439835 H          1 MOL1         0.1025
      14    C4      18.919396   18.768552   20.079091 C.3        1 MOL1        -0.2258
      15    H10     19.834392   18.471935   19.549984 H          1 MOL1         0.1036
      16    H11     18.123066   18.877772   19.331371 H          1 MOL1         0.1036
      17    H12     18.619990   17.956296   20.751606 H          1 MOL1         0.1036
@<TRIPOS>BOND
    1     1     2    1
    2     1     3    1
    3     1     4    1
    4     1     5    1
    5     5     6    1
    6     5     7    1
    7     5     8    1
    8     8     9    1
    9     8    10    1
   10     8    11    1
   11    11    12    1
   12    11    13    1
   13    11    14    1
   14    14    15    1
   15    14    16    1
   16    14    17    1
@<TRIPOS>SUBSTRUCTURE
       1 MOL1            1 RESIDUE      1      MOL     
@<SCITEGIC>MOL_PROPERTY
VConf Rank
SciTegic.value.IntegerValue
88

@<SCITEGIC>MOL_PROPERTY
Conf_Id
SciTegic.value.IntegerValue
44

@<SCITEGIC>MOL_PROPERTY
Delta U+W
SciTegic.value.DoubleValue
2.712

@<SCITEGIC>MOL_PROPERTY
U+W
SciTegic.value.DoubleValue
-13.153

@<SCITEGIC>MOL_PROPERTY
Grad RMS
SciTegic.value.DoubleValue
0.000000

@<SCITEGIC>MOL_PROPERTY
U
SciTegic.value.DoubleValue
47.423

@<SCITEGIC>MOL_PROPERTY
W
SciTegic.value.DoubleValue
-60.576

@<SCITEGIC>MOL_PROPERTY
W(PB)
SciTegic.value.DoubleValue
-62.262

@<SCITEGIC>MOL_PROPERTY
W(SA)
SciTegic.value.DoubleValue
1.687

@<SCITEGIC>MOL_PROPERTY
Valence
SciTegic.value.DoubleValue
2.414

@<SCITEGIC>MOL_PROPERTY
Coulomb
SciTegic.value.DoubleValue
44.831

@<SCITEGIC>MOL_PROPERTY
VdW
SciTegic.value.DoubleValue
0.178

@<SCITEGIC>MOL_PROPERTY
VdW6
SciTegic.value.DoubleValue
-3.743

@<SCITEGIC>MOL_PROPERTY
VdW12
SciTegic.value.DoubleValue
3.922

@<SCITEGIC>MOL_PROPERTY
Bond
SciTegic.value.DoubleValue
0.138

@<SCITEGIC>MOL_PROPERTY
Angle
SciTegic.value.DoubleValue
0.941

@<SCITEGIC>MOL_PROPERTY
Pdih
SciTegic.value.DoubleValue
1.335

@<SCITEGIC>MOL_PROPERTY
Idih
SciTegic.value.DoubleValue
0.000

@<SCITEGIC>MOL_PROPERTY
Tether
SciTegic.value.DoubleValue
0.000

@<TRIPOS>MOLECULE
guest-1_confgen4.mol2 : confsearch ligand conformer 89
          17          16           1
SMALL
USER_CHARGES
 
@<TRIPOS>ATOM
       1    N1      18.677040   19.400353   20.091429 N.4        1 MOL1        -0.5891
       2    H1      18.475739   18.454067   20.426790 H          1 MOL1         0.3726
       3    H2      19.147407   19.307175   19.186194 H          1 MOL1         0.3726
       4    H3      17.774766   19.852753   19.912813 H          1 MOL1         0.3726
       5    C1      19.513245   20.182741   21.085657 C.3        1 MOL1         0.0314
       6    H4      18.943299   20.269810   22.014304 H          1 MOL1         0.0999
       7    H5      19.656418   21.188601   20.681572 H          1 MOL1         0.0999
       8    C2      20.889150   19.548844   21.377168 C.3        1 MOL1        -0.1308
       9    H6      21.469413   19.503056   20.446068 H          1 MOL1         0.1025
      10    H7      21.445845   20.212674   22.051872 H          1 MOL1         0.1025
      11    C3      20.811084   18.134559   22.004274 C.3        1 MOL1        -0.1243
      12    H8      21.832458   17.760515   22.161719 H          1 MOL1         0.1025
      13    H9      20.337422   17.435570   21.301628 H          1 MOL1         0.1025
      14    C4      20.054285   18.110761   23.352045 C.3        1 MOL1        -0.2258
      15    H10     20.510231   18.801840   24.072871 H          1 MOL1         0.1036
      16    H11     20.080291   17.104760   23.790514 H          1 MOL1         0.1036
      17    H12     19.000549   18.390686   23.228631 H          1 MOL1         0.1036
@<TRIPOS>BOND
    1     1     2    1
    2     1     3    1
    3     1     4    1
    4     1     5    1
    5     5     6    1
    6     5     7    1
    7     5     8    1
    8     8     9    1
    9     8    10    1
   10     8    11    1
   11    11    12    1
   12    11    13    1
   13    11    14    1
   14    14    15    1
   15    14    16    1
   16    14    17    1
@<TRIPOS>SUBSTRUCTURE
       1 MOL1            1 RESIDUE      1      MOL     
@<SCITEGIC>MOL_PROPERTY
VConf Rank
SciTegic.value.IntegerValue
89

@<SCITEGIC>MOL_PROPERTY
Conf_Id
SciTegic.value.IntegerValue
1

@<SCITEGIC>MOL_PROPERTY
Delta U+W
SciTegic.value.DoubleValue
0.685

@<SCITEGIC>MOL_PROPERTY
U+W
SciTegic.value.DoubleValue
-15.179

@<SCITEGIC>MOL_PROPERTY
Grad RMS
SciTegic.value.DoubleValue
0.000000

@<SCITEGIC>MOL_PROPERTY
U
SciTegic.value.DoubleValue
45.697

@<SCITEGIC>MOL_PROPERTY
W
SciTegic.value.DoubleValue
-60.876

@<SCITEGIC>MOL_PROPERTY
W(PB)
SciTegic.value.DoubleValue
-62.586

@<SCITEGIC>MOL_PROPERTY
W(SA)
SciTegic.value.DoubleValue
1.710

@<SCITEGIC>MOL_PROPERTY
Valence
SciTegic.value.DoubleValue
1.263

@<SCITEGIC>MOL_PROPERTY
Coulomb
SciTegic.value.DoubleValue
44.179

@<SCITEGIC>MOL_PROPERTY
VdW
SciTegic.value.DoubleValue
0.255

@<SCITEGIC>MOL_PROPERTY
VdW6
SciTegic.value.DoubleValue
-3.552

@<SCITEGIC>MOL_PROPERTY
VdW12
SciTegic.value.DoubleValue
3.807

@<SCITEGIC>MOL_PROPERTY
Bond
SciTegic.value.DoubleValue
0.125

@<SCITEGIC>MOL_PROPERTY
Angle
SciTegic.value.DoubleValue
0.616

@<SCITEGIC>MOL_PROPERTY
Pdih
SciTegic.value.DoubleValue
0.521

@<SCITEGIC>MOL_PROPERTY
Idih
SciTegic.value.DoubleValue
0.000

@<SCITEGIC>MOL_PROPERTY
Tether
SciTegic.value.DoubleValue
0.000

@<TRIPOS>MOLECULE
guest-1_confgen4.mol2 : confsearch ligand conformer 90
          17          16           1
SMALL
USER_CHARGES
 
@<TRIPOS>ATOM
       1    N1      18.829069   20.526728   22.308075 N.4        1 MOL1        -0.5891
       2    H1      19.298753   21.428592   22.183917 H          1 MOL1         0.3726
       3    H2      19.265393   20.066316   23.111873 H          1 MOL1         0.3726
       4    H3      17.859077   20.729884   22.569824 H          1 MOL1         0.3726
       5    C1      18.908664   19.670633   21.058826 C.3        1 MOL1         0.0314
       6    H4      18.393399   20.204683   20.255813 H          1 MOL1         0.0999
       7    H5      18.365644   18.741247   21.249028 H          1 MOL1         0.0999
       8    C2      20.350751   19.349107   20.615062 C.3        1 MOL1        -0.1308
       9    H6      20.311043   18.784599   19.674021 H          1 MOL1         0.1025
      10    H7      20.875179   20.286550   20.387191 H          1 MOL1         0.1025
      11    C3      21.166117   18.544310   21.657672 C.3        1 MOL1        -0.1243
      12    H8      21.293483   19.134994   22.575018 H          1 MOL1         0.1025
      13    H9      22.177781   18.376305   21.262431 H          1 MOL1         0.1025
      14    C4      20.528375   17.178840   22.002022 C.3        1 MOL1        -0.2258
      15    H10     21.171019   16.616795   22.692009 H          1 MOL1         0.1036
      16    H11     20.391592   16.568488   21.099898 H          1 MOL1         0.1036
      17    H12     19.550648   17.299969   22.485061 H          1 MOL1         0.1036
@<TRIPOS>BOND
    1     1     2    1
    2     1     3    1
    3     1     4    1
    4     1     5    1
    5     5     6    1
    6     5     7    1
    7     5     8    1
    8     8     9    1
    9     8    10    1
   10     8    11    1
   11    11    12    1
   12    11    13    1
   13    11    14    1
   14    14    15    1
   15    14    16    1
   16    14    17    1
@<TRIPOS>SUBSTRUCTURE
       1 MOL1            1 RESIDUE      1      MOL     
@<SCITEGIC>MOL_PROPERTY
VConf Rank
SciTegic.value.IntegerValue
90

@<SCITEGIC>MOL_PROPERTY
Conf_Id
SciTegic.value.IntegerValue
43

@<SCITEGIC>MOL_PROPERTY
Delta U+W
SciTegic.value.DoubleValue
0.642

@<SCITEGIC>MOL_PROPERTY
U+W
SciTegic.value.DoubleValue
-15.222

@<SCITEGIC>MOL_PROPERTY
Grad RMS
SciTegic.value.DoubleValue
0.000000

@<SCITEGIC>MOL_PROPERTY
U
SciTegic.value.DoubleValue
45.697

@<SCITEGIC>MOL_PROPERTY
W
SciTegic.value.DoubleValue
-60.919

@<SCITEGIC>MOL_PROPERTY
W(PB)
SciTegic.value.DoubleValue
-62.631

@<SCITEGIC>MOL_PROPERTY
W(SA)
SciTegic.value.DoubleValue
1.712

@<SCITEGIC>MOL_PROPERTY
Valence
SciTegic.value.DoubleValue
1.262

@<SCITEGIC>MOL_PROPERTY
Coulomb
SciTegic.value.DoubleValue
44.179

@<SCITEGIC>MOL_PROPERTY
VdW
SciTegic.value.DoubleValue
0.255

@<SCITEGIC>MOL_PROPERTY
VdW6
SciTegic.value.DoubleValue
-3.552

@<SCITEGIC>MOL_PROPERTY
VdW12
SciTegic.value.DoubleValue
3.807

@<SCITEGIC>MOL_PROPERTY
Bond
SciTegic.value.DoubleValue
0.125

@<SCITEGIC>MOL_PROPERTY
Angle
SciTegic.value.DoubleValue
0.616

@<SCITEGIC>MOL_PROPERTY
Pdih
SciTegic.value.DoubleValue
0.521

@<SCITEGIC>MOL_PROPERTY
Idih
SciTegic.value.DoubleValue
0.000

@<SCITEGIC>MOL_PROPERTY
Tether
SciTegic.value.DoubleValue
0.000

@<TRIPOS>MOLECULE
guest-1_confgen4.mol2 : confsearch ligand conformer 91
          17          16           1
SMALL
USER_CHARGES
 
@<TRIPOS>ATOM
       1    N1      20.307258   17.086776   20.000241 N.4        1 MOL1        -0.5891
       2    H1      19.685461   17.410305   19.252984 H          1 MOL1         0.3726
       3    H2      19.790262   16.385237   20.538994 H          1 MOL1         0.3726
       4    H3      21.085682   16.597518   19.546820 H          1 MOL1         0.3726
       5    C1      20.790511   18.229102   20.871398 C.3        1 MOL1         0.0314
       6    H4      21.356763   18.919078   20.239880 H          1 MOL1         0.0999
       7    H5      21.469498   17.816803   21.622737 H          1 MOL1         0.0999
       8    C2      19.645840   18.986679   21.568584 C.3        1 MOL1        -0.1308
       9    H6      18.957750   19.386042   20.811595 H          1 MOL1         0.1025
      10    H7      19.070194   18.287601   22.189802 H          1 MOL1         0.1025
      11    C3      20.180762   20.140709   22.444709 C.3        1 MOL1        -0.1243
      12    H8      20.759873   20.839072   21.824028 H          1 MOL1         0.1025
      13    H9      20.872117   19.741974   23.200595 H          1 MOL1         0.1025
      14    C4      19.038079   20.905330   23.147265 C.3        1 MOL1        -0.2258
      15    H10     19.438583   21.720306   23.764079 H          1 MOL1         0.1036
      16    H11     18.461469   20.239705   23.802758 H          1 MOL1         0.1036
      17    H12     18.348307   21.345410   22.415314 H          1 MOL1         0.1036
@<TRIPOS>BOND
    1     1     2    1
    2     1     3    1
    3     1     4    1
    4     1     5    1
    5     5     6    1
    6     5     7    1
    7     5     8    1
    8     8     9    1
    9     8    10    1
   10     8    11    1
   11    11    12    1
   12    11    13    1
   13    11    14    1
   14    14    15    1
   15    14    16    1
   16    14    17    1
@<TRIPOS>SUBSTRUCTURE
       1 MOL1            1 RESIDUE      1      MOL     
@<SCITEGIC>MOL_PROPERTY
VConf Rank
SciTegic.value.IntegerValue
91

@<SCITEGIC>MOL_PROPERTY
Conf_Id
SciTegic.value.IntegerValue
7

@<SCITEGIC>MOL_PROPERTY
Delta U+W
SciTegic.value.DoubleValue
0.000

@<SCITEGIC>MOL_PROPERTY
U+W
SciTegic.value.DoubleValue
-15.865

@<SCITEGIC>MOL_PROPERTY
Grad RMS
SciTegic.value.DoubleValue
0.000000

@<SCITEGIC>MOL_PROPERTY
U
SciTegic.value.DoubleValue
44.664

@<SCITEGIC>MOL_PROPERTY
W
SciTegic.value.DoubleValue
-60.529

@<SCITEGIC>MOL_PROPERTY
W(PB)
SciTegic.value.DoubleValue
-62.309

@<SCITEGIC>MOL_PROPERTY
W(SA)
SciTegic.value.DoubleValue
1.780

@<SCITEGIC>MOL_PROPERTY
Valence
SciTegic.value.DoubleValue
0.872

@<SCITEGIC>MOL_PROPERTY
Coulomb
SciTegic.value.DoubleValue
43.648

@<SCITEGIC>MOL_PROPERTY
VdW
SciTegic.value.DoubleValue
0.144

@<SCITEGIC>MOL_PROPERTY
VdW6
SciTegic.value.DoubleValue
-2.370

@<SCITEGIC>MOL_PROPERTY
VdW12
SciTegic.value.DoubleValue
2.515

@<SCITEGIC>MOL_PROPERTY
Bond
SciTegic.value.DoubleValue
0.080

@<SCITEGIC>MOL_PROPERTY
Angle
SciTegic.value.DoubleValue
0.376

@<SCITEGIC>MOL_PROPERTY
Pdih
SciTegic.value.DoubleValue
0.416

@<SCITEGIC>MOL_PROPERTY
Idih
SciTegic.value.DoubleValue
0.000

@<SCITEGIC>MOL_PROPERTY
Tether
SciTegic.value.DoubleValue
0.000

@<TRIPOS>MOLECULE
guest-1_confgen4.mol2 : confsearch ligand conformer 92
          17          16           1
SMALL
USER_CHARGES
 
@<TRIPOS>ATOM
       1    N1      21.317651   17.388935   22.612065 N.4        1 MOL1        -0.5891
       2    H1      22.119336   17.219550   21.997038 H          1 MOL1         0.3726
       3    H2      20.675450   16.599565   22.493243 H          1 MOL1         0.3726
       4    H3      21.667873   17.343843   23.574435 H          1 MOL1         0.3726
       5    C1      20.646678   18.715824   22.317925 C.3        1 MOL1         0.0314
       6    H4      21.377234   19.510147   22.493273 H          1 MOL1         0.0999
       7    H5      19.825785   18.841878   23.028617 H          1 MOL1         0.0999
       8    C2      20.107737   18.817185   20.878054 C.3        1 MOL1        -0.1308
       9    H6      20.932371   18.649403   20.172572 H          1 MOL1         0.1025
      10    H7      19.375229   18.018360   20.701423 H          1 MOL1         0.1025
      11    C3      19.460672   20.189644   20.578609 C.3        1 MOL1        -0.1243
      12    H8      19.171701   20.224399   19.518765 H          1 MOL1         0.1025
      13    H9      20.202255   20.988050   20.722780 H          1 MOL1         0.1025
      14    C4      18.215800   20.473794   21.450108 C.3        1 MOL1        -0.2258
      15    H10     17.460589   19.686329   21.328948 H          1 MOL1         0.1036
      16    H11     17.754165   21.427326   21.162572 H          1 MOL1         0.1036
      17    H12     18.474857   20.539542   22.514372 H          1 MOL1         0.1036
@<TRIPOS>BOND
    1     1     2    1
    2     1     3    1
    3     1     4    1
    4     1     5    1
    5     5     6    1
    6     5     7    1
    7     5     8    1
    8     8     9    1
    9     8    10    1
   10     8    11    1
   11    11    12    1
   12    11    13    1
   13    11    14    1
   14    14    15    1
   15    14    16    1
   16    14    17    1
@<TRIPOS>SUBSTRUCTURE
       1 MOL1            1 RESIDUE      1      MOL     
@<SCITEGIC>MOL_PROPERTY
VConf Rank
SciTegic.value.IntegerValue
92

@<SCITEGIC>MOL_PROPERTY
Conf_Id
SciTegic.value.IntegerValue
36

@<SCITEGIC>MOL_PROPERTY
Delta U+W
SciTegic.value.DoubleValue
0.275

@<SCITEGIC>MOL_PROPERTY
U+W
SciTegic.value.DoubleValue
-15.590

@<SCITEGIC>MOL_PROPERTY
Grad RMS
SciTegic.value.DoubleValue
0.000000

@<SCITEGIC>MOL_PROPERTY
U
SciTegic.value.DoubleValue
45.174

@<SCITEGIC>MOL_PROPERTY
W
SciTegic.value.DoubleValue
-60.765

@<SCITEGIC>MOL_PROPERTY
W(PB)
SciTegic.value.DoubleValue
-62.518

@<SCITEGIC>MOL_PROPERTY
W(SA)
SciTegic.value.DoubleValue
1.754

@<SCITEGIC>MOL_PROPERTY
Valence
SciTegic.value.DoubleValue
1.161

@<SCITEGIC>MOL_PROPERTY
Coulomb
SciTegic.value.DoubleValue
43.789

@<SCITEGIC>MOL_PROPERTY
VdW
SciTegic.value.DoubleValue
0.224

@<SCITEGIC>MOL_PROPERTY
VdW6
SciTegic.value.DoubleValue
-2.897

@<SCITEGIC>MOL_PROPERTY
VdW12
SciTegic.value.DoubleValue
3.121

@<SCITEGIC>MOL_PROPERTY
Bond
SciTegic.value.DoubleValue
0.100

@<SCITEGIC>MOL_PROPERTY
Angle
SciTegic.value.DoubleValue
0.500

@<SCITEGIC>MOL_PROPERTY
Pdih
SciTegic.value.DoubleValue
0.561

@<SCITEGIC>MOL_PROPERTY
Idih
SciTegic.value.DoubleValue
0.000

@<SCITEGIC>MOL_PROPERTY
Tether
SciTegic.value.DoubleValue
0.000

@<TRIPOS>MOLECULE
guest-1_confgen4.mol2 : confsearch ligand conformer 93
          17          16           1
SMALL
USER_CHARGES
 
@<TRIPOS>ATOM
       1    N1      18.874580   17.674809   20.826514 N.4        1 MOL1        -0.5891
       2    H1      19.552199   18.047258   20.156469 H          1 MOL1         0.3726
       3    H2      17.975042   18.121870   20.625401 H          1 MOL1         0.3726
       4    H3      18.763048   16.676764   20.620874 H          1 MOL1         0.3726
       5    C1      19.312954   17.910082   22.259171 C.3        1 MOL1         0.0314
       6    H4      20.238932   17.356146   22.435301 H          1 MOL1         0.0999
       7    H5      18.538200   17.486813   22.904259 H          1 MOL1         0.0999
       8    C2      19.515368   19.395646   22.624877 C.3        1 MOL1        -0.1308
       9    H6      18.688682   19.997104   22.224168 H          1 MOL1         0.1025
      10    H7      19.449659   19.483495   23.717493 H          1 MOL1         0.1025
      11    C3      20.877394   19.987212   22.180309 C.3        1 MOL1        -0.1243
      12    H8      21.696175   19.415054   22.638843 H          1 MOL1         0.1025
      13    H9      20.958594   21.007628   22.580493 H          1 MOL1         0.1025
      14    C4      21.081369   20.041393   20.649185 C.3        1 MOL1        -0.2258
      15    H10     21.217294   19.039473   20.225680 H          1 MOL1         0.1036
      16    H11     21.982534   20.619077   20.405587 H          1 MOL1         0.1036
      17    H12     20.231175   20.524893   20.150636 H          1 MOL1         0.1036
@<TRIPOS>BOND
    1     1     2    1
    2     1     3    1
    3     1     4    1
    4     1     5    1
    5     5     6    1
    6     5     7    1
    7     5     8    1
    8     8     9    1
    9     8    10    1
   10     8    11    1
   11    11    12    1
   12    11    13    1
   13    11    14    1
   14    14    15    1
   15    14    16    1
   16    14    17    1
@<TRIPOS>SUBSTRUCTURE
       1 MOL1            1 RESIDUE      1      MOL     
@<SCITEGIC>MOL_PROPERTY
VConf Rank
SciTegic.value.IntegerValue
93

@<SCITEGIC>MOL_PROPERTY
Conf_Id
SciTegic.value.IntegerValue
19

@<SCITEGIC>MOL_PROPERTY
Delta U+W
SciTegic.value.DoubleValue
2.662

@<SCITEGIC>MOL_PROPERTY
U+W
SciTegic.value.DoubleValue
-13.203

@<SCITEGIC>MOL_PROPERTY
Grad RMS
SciTegic.value.DoubleValue
0.000000

@<SCITEGIC>MOL_PROPERTY
U
SciTegic.value.DoubleValue
47.423

@<SCITEGIC>MOL_PROPERTY
W
SciTegic.value.DoubleValue
-60.626

@<SCITEGIC>MOL_PROPERTY
W(PB)
SciTegic.value.DoubleValue
-62.328

@<SCITEGIC>MOL_PROPERTY
W(SA)
SciTegic.value.DoubleValue
1.702

@<SCITEGIC>MOL_PROPERTY
Valence
SciTegic.value.DoubleValue
2.414

@<SCITEGIC>MOL_PROPERTY
Coulomb
SciTegic.value.DoubleValue
44.831

@<SCITEGIC>MOL_PROPERTY
VdW
SciTegic.value.DoubleValue
0.178

@<SCITEGIC>MOL_PROPERTY
VdW6
SciTegic.value.DoubleValue
-3.743

@<SCITEGIC>MOL_PROPERTY
VdW12
SciTegic.value.DoubleValue
3.921

@<SCITEGIC>MOL_PROPERTY
Bond
SciTegic.value.DoubleValue
0.138

@<SCITEGIC>MOL_PROPERTY
Angle
SciTegic.value.DoubleValue
0.941

@<SCITEGIC>MOL_PROPERTY
Pdih
SciTegic.value.DoubleValue
1.335

@<SCITEGIC>MOL_PROPERTY
Idih
SciTegic.value.DoubleValue
0.000

@<SCITEGIC>MOL_PROPERTY
Tether
SciTegic.value.DoubleValue
0.000

@<TRIPOS>MOLECULE
guest-1_confgen4.mol2 : confsearch ligand conformer 94
          17          16           1
SMALL
USER_CHARGES
 
@<TRIPOS>ATOM
       1    N1      19.104650   20.743536   21.755582 N.4        1 MOL1        -0.5891
       2    H1      18.827392   21.501318   22.387815 H          1 MOL1         0.3726
       3    H2      18.672781   20.941020   20.847855 H          1 MOL1         0.3726
       4    H3      20.117533   20.811972   21.628189 H          1 MOL1         0.3726
       5    C1      18.695795   19.384551   22.290407 C.3        1 MOL1         0.0314
       6    H4      17.607390   19.395989   22.394234 H          1 MOL1         0.0999
       7    H5      19.128787   19.257727   23.286266 H          1 MOL1         0.0999
       8    C2      19.102444   18.199570   21.389258 C.3        1 MOL1        -0.1308
       9    H6      18.457574   17.348151   21.644357 H          1 MOL1         0.1025
      10    H7      18.887765   18.435745   20.338609 H          1 MOL1         0.1025
      11    C3      20.576000   17.746154   21.549728 C.3        1 MOL1        -0.1243
      12    H8      20.726543   16.839297   20.947285 H          1 MOL1         0.1025
      13    H9      20.760752   17.452205   22.592553 H          1 MOL1         0.1025
      14    C4      21.619865   18.801689   21.119531 C.3        1 MOL1        -0.2258
      15    H10     21.406456   19.186552   20.113803 H          1 MOL1         0.1036
      16    H11     22.623831   18.358035   21.100053 H          1 MOL1         0.1036
      17    H12     21.653655   19.643336   21.821079 H          1 MOL1         0.1036
@<TRIPOS>BOND
    1     1     2    1
    2     1     3    1
    3     1     4    1
    4     1     5    1
    5     5     6    1
    6     5     7    1
    7     5     8    1
    8     8     9    1
    9     8    10    1
   10     8    11    1
   11    11    12    1
   12    11    13    1
   13    11    14    1
   14    14    15    1
   15    14    16    1
   16    14    17    1
@<TRIPOS>SUBSTRUCTURE
       1 MOL1            1 RESIDUE      1      MOL     
@<SCITEGIC>MOL_PROPERTY
VConf Rank
SciTegic.value.IntegerValue
94

@<SCITEGIC>MOL_PROPERTY
Conf_Id
SciTegic.value.IntegerValue
44

@<SCITEGIC>MOL_PROPERTY
Delta U+W
SciTegic.value.DoubleValue
2.712

@<SCITEGIC>MOL_PROPERTY
U+W
SciTegic.value.DoubleValue
-13.153

@<SCITEGIC>MOL_PROPERTY
Grad RMS
SciTegic.value.DoubleValue
0.000000

@<SCITEGIC>MOL_PROPERTY
U
SciTegic.value.DoubleValue
47.423

@<SCITEGIC>MOL_PROPERTY
W
SciTegic.value.DoubleValue
-60.576

@<SCITEGIC>MOL_PROPERTY
W(PB)
SciTegic.value.DoubleValue
-62.262

@<SCITEGIC>MOL_PROPERTY
W(SA)
SciTegic.value.DoubleValue
1.687

@<SCITEGIC>MOL_PROPERTY
Valence
SciTegic.value.DoubleValue
2.414

@<SCITEGIC>MOL_PROPERTY
Coulomb
SciTegic.value.DoubleValue
44.831

@<SCITEGIC>MOL_PROPERTY
VdW
SciTegic.value.DoubleValue
0.178

@<SCITEGIC>MOL_PROPERTY
VdW6
SciTegic.value.DoubleValue
-3.743

@<SCITEGIC>MOL_PROPERTY
VdW12
SciTegic.value.DoubleValue
3.922

@<SCITEGIC>MOL_PROPERTY
Bond
SciTegic.value.DoubleValue
0.138

@<SCITEGIC>MOL_PROPERTY
Angle
SciTegic.value.DoubleValue
0.941

@<SCITEGIC>MOL_PROPERTY
Pdih
SciTegic.value.DoubleValue
1.335

@<SCITEGIC>MOL_PROPERTY
Idih
SciTegic.value.DoubleValue
0.000

@<SCITEGIC>MOL_PROPERTY
Tether
SciTegic.value.DoubleValue
0.000

@<TRIPOS>MOLECULE
guest-1_confgen4.mol2 : confsearch ligand conformer 95
          17          16           1
SMALL
USER_CHARGES
 
@<TRIPOS>ATOM
       1    N1      21.636309   19.923232   21.137122 N.4        1 MOL1        -0.5891
       2    H1      20.894900   20.616395   21.001902 H          1 MOL1         0.3726
       3    H2      21.964287   19.645292   20.207305 H          1 MOL1         0.3726
       4    H3      22.416096   20.404837   21.596094 H          1 MOL1         0.3726
       5    C1      21.153363   18.734444   21.945457 C.3        1 MOL1         0.0314
       6    H4      20.847627   19.095590   22.930802 H          1 MOL1         0.0999
       7    H5      22.001422   18.057876   22.081803 H          1 MOL1         0.0999
       8    C2      19.987946   17.966528   21.288170 C.3        1 MOL1        -0.1308
       9    H6      20.317551   17.573215   20.317390 H          1 MOL1         0.1025
      10    H7      19.750176   17.091567   21.907617 H          1 MOL1         0.1025
      11    C3      18.706547   18.814301   21.091055 C.3        1 MOL1        -0.1243
      12    H8      17.941478   18.191634   20.606431 H          1 MOL1         0.1025
      13    H9      18.905291   19.643671   20.398739 H          1 MOL1         0.1025
      14    C4      18.137050   19.368205   22.417200 C.3        1 MOL1        -0.2258
      15    H10     17.928851   18.556808   23.126676 H          1 MOL1         0.1036
      16    H11     17.196695   19.905359   22.237849 H          1 MOL1         0.1036
      17    H12     18.833053   20.069811   22.893935 H          1 MOL1         0.1036
@<TRIPOS>BOND
    1     1     2    1
    2     1     3    1
    3     1     4    1
    4     1     5    1
    5     5     6    1
    6     5     7    1
    7     5     8    1
    8     8     9    1
    9     8    10    1
   10     8    11    1
   11    11    12    1
   12    11    13    1
   13    11    14    1
   14    14    15    1
   15    14    16    1
   16    14    17    1
@<TRIPOS>SUBSTRUCTURE
       1 MOL1            1 RESIDUE      1      MOL     
@<SCITEGIC>MOL_PROPERTY
VConf Rank
SciTegic.value.IntegerValue
95

@<SCITEGIC>MOL_PROPERTY
Conf_Id
SciTegic.value.IntegerValue
1

@<SCITEGIC>MOL_PROPERTY
Delta U+W
SciTegic.value.DoubleValue
0.685

@<SCITEGIC>MOL_PROPERTY
U+W
SciTegic.value.DoubleValue
-15.179

@<SCITEGIC>MOL_PROPERTY
Grad RMS
SciTegic.value.DoubleValue
0.000000

@<SCITEGIC>MOL_PROPERTY
U
SciTegic.value.DoubleValue
45.697

@<SCITEGIC>MOL_PROPERTY
W
SciTegic.value.DoubleValue
-60.876

@<SCITEGIC>MOL_PROPERTY
W(PB)
SciTegic.value.DoubleValue
-62.586

@<SCITEGIC>MOL_PROPERTY
W(SA)
SciTegic.value.DoubleValue
1.710

@<SCITEGIC>MOL_PROPERTY
Valence
SciTegic.value.DoubleValue
1.263

@<SCITEGIC>MOL_PROPERTY
Coulomb
SciTegic.value.DoubleValue
44.179

@<SCITEGIC>MOL_PROPERTY
VdW
SciTegic.value.DoubleValue
0.255

@<SCITEGIC>MOL_PROPERTY
VdW6
SciTegic.value.DoubleValue
-3.552

@<SCITEGIC>MOL_PROPERTY
VdW12
SciTegic.value.DoubleValue
3.807

@<SCITEGIC>MOL_PROPERTY
Bond
SciTegic.value.DoubleValue
0.125

@<SCITEGIC>MOL_PROPERTY
Angle
SciTegic.value.DoubleValue
0.616

@<SCITEGIC>MOL_PROPERTY
Pdih
SciTegic.value.DoubleValue
0.521

@<SCITEGIC>MOL_PROPERTY
Idih
SciTegic.value.DoubleValue
0.000

@<SCITEGIC>MOL_PROPERTY
Tether
SciTegic.value.DoubleValue
0.000

@<TRIPOS>MOLECULE
guest-1_confgen4.mol2 : confsearch ligand conformer 96
          17          16           1
SMALL
USER_CHARGES
 
@<TRIPOS>ATOM
       1    N1      18.253768   18.288110   20.824678 N.4        1 MOL1        -0.5891
       2    H1      17.426010   18.776065   21.179775 H          1 MOL1         0.3726
       3    H2      18.560094   17.640118   21.555923 H          1 MOL1         0.3726
       4    H3      17.945500   17.718580   20.030150 H          1 MOL1         0.3726
       5    C1      19.355165   19.254047   20.432573 C.3        1 MOL1         0.0314
       6    H4      18.972291   19.886303   19.626845 H          1 MOL1         0.0999
       7    H5      20.191813   18.672427   20.036917 H          1 MOL1         0.0999
       8    C2      19.843912   20.145492   21.592906 C.3        1 MOL1        -0.1308
       9    H6      20.589437   20.851437   21.203499 H          1 MOL1         0.1025
      10    H7      19.006214   20.755306   21.956412 H          1 MOL1         0.1025
      11    C3      20.458116   19.357847   22.776936 C.3        1 MOL1        -0.1243
      12    H8      19.696980   18.712957   23.236766 H          1 MOL1         0.1025
      13    H9      20.762339   20.070703   23.556160 H          1 MOL1         0.1025
      14    C4      21.682882   18.507718   22.368248 C.3        1 MOL1        -0.2258
      15    H10     22.123962   18.020387   23.247410 H          1 MOL1         0.1036
      16    H11     22.459501   19.131085   21.906358 H          1 MOL1         0.1036
      17    H12     21.408004   17.719457   21.656184 H          1 MOL1         0.1036
@<TRIPOS>BOND
    1     1     2    1
    2     1     3    1
    3     1     4    1
    4     1     5    1
    5     5     6    1
    6     5     7    1
    7     5     8    1
    8     8     9    1
    9     8    10    1
   10     8    11    1
   11    11    12    1
   12    11    13    1
   13    11    14    1
   14    14    15    1
   15    14    16    1
   16    14    17    1
@<TRIPOS>SUBSTRUCTURE
       1 MOL1            1 RESIDUE      1      MOL     
@<SCITEGIC>MOL_PROPERTY
VConf Rank
SciTegic.value.IntegerValue
96

@<SCITEGIC>MOL_PROPERTY
Conf_Id
SciTegic.value.IntegerValue
43

@<SCITEGIC>MOL_PROPERTY
Delta U+W
SciTegic.value.DoubleValue
0.642

@<SCITEGIC>MOL_PROPERTY
U+W
SciTegic.value.DoubleValue
-15.222

@<SCITEGIC>MOL_PROPERTY
Grad RMS
SciTegic.value.DoubleValue
0.000000

@<SCITEGIC>MOL_PROPERTY
U
SciTegic.value.DoubleValue
45.697

@<SCITEGIC>MOL_PROPERTY
W
SciTegic.value.DoubleValue
-60.919

@<SCITEGIC>MOL_PROPERTY
W(PB)
SciTegic.value.DoubleValue
-62.631

@<SCITEGIC>MOL_PROPERTY
W(SA)
SciTegic.value.DoubleValue
1.712

@<SCITEGIC>MOL_PROPERTY
Valence
SciTegic.value.DoubleValue
1.262

@<SCITEGIC>MOL_PROPERTY
Coulomb
SciTegic.value.DoubleValue
44.179

@<SCITEGIC>MOL_PROPERTY
VdW
SciTegic.value.DoubleValue
0.255

@<SCITEGIC>MOL_PROPERTY
VdW6
SciTegic.value.DoubleValue
-3.552

@<SCITEGIC>MOL_PROPERTY
VdW12
SciTegic.value.DoubleValue
3.807

@<SCITEGIC>MOL_PROPERTY
Bond
SciTegic.value.DoubleValue
0.125

@<SCITEGIC>MOL_PROPERTY
Angle
SciTegic.value.DoubleValue
0.616

@<SCITEGIC>MOL_PROPERTY
Pdih
SciTegic.value.DoubleValue
0.521

@<SCITEGIC>MOL_PROPERTY
Idih
SciTegic.value.DoubleValue
0.000

@<SCITEGIC>MOL_PROPERTY
Tether
SciTegic.value.DoubleValue
0.000

@<TRIPOS>MOLECULE
guest-1_confgen4.mol2 : confsearch ligand conformer 97
          17          16           1
SMALL
USER_CHARGES
 
@<TRIPOS>ATOM
       1    N1      20.318300   17.752543   23.780709 N.4        1 MOL1        -0.5891
       2    H1      20.065263   16.826518   23.422734 H          1 MOL1         0.3726
       3    H2      19.503847   18.111671   24.288045 H          1 MOL1         0.3726
       4    H3      21.059795   17.609649   24.474016 H          1 MOL1         0.3726
       5    C1      20.755784   18.689700   22.672692 C.3        1 MOL1         0.0314
       6    H4      21.642326   18.260529   22.197951 H          1 MOL1         0.0999
       7    H5      21.038667   19.642479   23.128447 H          1 MOL1         0.0999
       8    C2      19.664801   18.926910   21.612621 C.3        1 MOL1        -0.1308
       9    H6      19.372287   17.966250   21.168147 H          1 MOL1         0.1025
      10    H7      18.770768   19.343578   22.095409 H          1 MOL1         0.1025
      11    C3      20.150853   19.885783   20.503641 C.3        1 MOL1        -0.1243
      12    H8      21.047718   19.470823   20.022219 H          1 MOL1         0.1025
      13    H9      20.446864   20.846489   20.948329 H          1 MOL1         0.1025
      14    C4      19.061660   20.128435   19.436527 C.3        1 MOL1        -0.2258
      15    H10     19.426363   20.811508   18.658419 H          1 MOL1         0.1036
      16    H11     18.163777   20.575661   19.882625 H          1 MOL1         0.1036
      17    H12     18.769336   19.189118   18.949250 H          1 MOL1         0.1036
@<TRIPOS>BOND
    1     1     2    1
    2     1     3    1
    3     1     4    1
    4     1     5    1
    5     5     6    1
    6     5     7    1
    7     5     8    1
    8     8     9    1
    9     8    10    1
   10     8    11    1
   11    11    12    1
   12    11    13    1
   13    11    14    1
   14    14    15    1
   15    14    16    1
   16    14    17    1
@<TRIPOS>SUBSTRUCTURE
       1 MOL1            1 RESIDUE      1      MOL     
@<SCITEGIC>MOL_PROPERTY
VConf Rank
SciTegic.value.IntegerValue
97

@<SCITEGIC>MOL_PROPERTY
Conf_Id
SciTegic.value.IntegerValue
7

@<SCITEGIC>MOL_PROPERTY
Delta U+W
SciTegic.value.DoubleValue
0.000

@<SCITEGIC>MOL_PROPERTY
U+W
SciTegic.value.DoubleValue
-15.865

@<SCITEGIC>MOL_PROPERTY
Grad RMS
SciTegic.value.DoubleValue
0.000000

@<SCITEGIC>MOL_PROPERTY
U
SciTegic.value.DoubleValue
44.664

@<SCITEGIC>MOL_PROPERTY
W
SciTegic.value.DoubleValue
-60.529

@<SCITEGIC>MOL_PROPERTY
W(PB)
SciTegic.value.DoubleValue
-62.309

@<SCITEGIC>MOL_PROPERTY
W(SA)
SciTegic.value.DoubleValue
1.780

@<SCITEGIC>MOL_PROPERTY
Valence
SciTegic.value.DoubleValue
0.872

@<SCITEGIC>MOL_PROPERTY
Coulomb
SciTegic.value.DoubleValue
43.648

@<SCITEGIC>MOL_PROPERTY
VdW
SciTegic.value.DoubleValue
0.144

@<SCITEGIC>MOL_PROPERTY
VdW6
SciTegic.value.DoubleValue
-2.370

@<SCITEGIC>MOL_PROPERTY
VdW12
SciTegic.value.DoubleValue
2.515

@<SCITEGIC>MOL_PROPERTY
Bond
SciTegic.value.DoubleValue
0.080

@<SCITEGIC>MOL_PROPERTY
Angle
SciTegic.value.DoubleValue
0.376

@<SCITEGIC>MOL_PROPERTY
Pdih
SciTegic.value.DoubleValue
0.416

@<SCITEGIC>MOL_PROPERTY
Idih
SciTegic.value.DoubleValue
0.000

@<SCITEGIC>MOL_PROPERTY
Tether
SciTegic.value.DoubleValue
0.000

@<TRIPOS>MOLECULE
guest-1_confgen4.mol2 : confsearch ligand conformer 98
          17          16           1
SMALL
USER_CHARGES
 
@<TRIPOS>ATOM
       1    N1      19.443863   19.303972   23.976025 N.4        1 MOL1        -0.5891
       2    H1      20.047948   20.030134   24.372785 H          1 MOL1         0.3726
       3    H2      19.822171   18.400644   24.276905 H          1 MOL1         0.3726
       4    H3      18.526766   19.404872   24.422786 H          1 MOL1         0.3726
       5    C1      19.349904   19.405677   22.466660 C.3        1 MOL1         0.0314
       6    H4      18.912654   20.376945   22.219966 H          1 MOL1         0.0999
       7    H5      18.668622   18.624670   22.119207 H          1 MOL1         0.0999
       8    C2      20.712394   19.257797   21.762594 C.3        1 MOL1        -0.1308
       9    H6      21.401189   20.021394   22.147767 H          1 MOL1         0.1025
      10    H7      21.152308   18.282963   22.011721 H          1 MOL1         0.1025
      11    C3      20.608717   19.402574   20.226268 C.3        1 MOL1        -0.1243
      12    H8      21.619254   19.367811   19.795468 H          1 MOL1         0.1025
      13    H9      20.199469   20.391095   19.974231 H          1 MOL1         0.1025
      14    C4      19.743828   18.300529   19.572493 C.3        1 MOL1        -0.2258
      15    H10     20.128412   17.301116   19.814139 H          1 MOL1         0.1036
      16    H11     19.747988   18.405550   18.479807 H          1 MOL1         0.1036
      17    H12     18.699895   18.356031   19.905981 H          1 MOL1         0.1036
@<TRIPOS>BOND
    1     1     2    1
    2     1     3    1
    3     1     4    1
    4     1     5    1
    5     5     6    1
    6     5     7    1
    7     5     8    1
    8     8     9    1
    9     8    10    1
   10     8    11    1
   11    11    12    1
   12    11    13    1
   13    11    14    1
   14    14    15    1
   15    14    16    1
   16    14    17    1
@<TRIPOS>SUBSTRUCTURE
       1 MOL1            1 RESIDUE      1      MOL     
@<SCITEGIC>MOL_PROPERTY
VConf Rank
SciTegic.value.IntegerValue
98

@<SCITEGIC>MOL_PROPERTY
Conf_Id
SciTegic.value.IntegerValue
36

@<SCITEGIC>MOL_PROPERTY
Delta U+W
SciTegic.value.DoubleValue
0.275

@<SCITEGIC>MOL_PROPERTY
U+W
SciTegic.value.DoubleValue
-15.590

@<SCITEGIC>MOL_PROPERTY
Grad RMS
SciTegic.value.DoubleValue
0.000000

@<SCITEGIC>MOL_PROPERTY
U
SciTegic.value.DoubleValue
45.174

@<SCITEGIC>MOL_PROPERTY
W
SciTegic.value.DoubleValue
-60.765

@<SCITEGIC>MOL_PROPERTY
W(PB)
SciTegic.value.DoubleValue
-62.518

@<SCITEGIC>MOL_PROPERTY
W(SA)
SciTegic.value.DoubleValue
1.754

@<SCITEGIC>MOL_PROPERTY
Valence
SciTegic.value.DoubleValue
1.161

@<SCITEGIC>MOL_PROPERTY
Coulomb
SciTegic.value.DoubleValue
43.789

@<SCITEGIC>MOL_PROPERTY
VdW
SciTegic.value.DoubleValue
0.224

@<SCITEGIC>MOL_PROPERTY
VdW6
SciTegic.value.DoubleValue
-2.897

@<SCITEGIC>MOL_PROPERTY
VdW12
SciTegic.value.DoubleValue
3.121

@<SCITEGIC>MOL_PROPERTY
Bond
SciTegic.value.DoubleValue
0.100

@<SCITEGIC>MOL_PROPERTY
Angle
SciTegic.value.DoubleValue
0.500

@<SCITEGIC>MOL_PROPERTY
Pdih
SciTegic.value.DoubleValue
0.561

@<SCITEGIC>MOL_PROPERTY
Idih
SciTegic.value.DoubleValue
0.000

@<SCITEGIC>MOL_PROPERTY
Tether
SciTegic.value.DoubleValue
0.000

@<TRIPOS>MOLECULE
guest-1_confgen4.mol2 : confsearch ligand conformer 99
          17          16           1
SMALL
USER_CHARGES
 
@<TRIPOS>ATOM
       1    N1      21.268508   18.668468   20.342809 N.4        1 MOL1        -0.5891
       2    H1      20.753954   19.526873   20.130160 H          1 MOL1         0.3726
       3    H2      20.903756   17.937543   19.724598 H          1 MOL1         0.3726
       4    H3      22.244755   18.826222   20.072850 H          1 MOL1         0.3726
       5    C1      21.142349   18.284817   21.804632 C.3        1 MOL1         0.0314
       6    H4      21.607112   19.066787   22.411114 H          1 MOL1         0.0999
       7    H5      21.715084   17.363920   21.944134 H          1 MOL1         0.0999
       8    C2      19.691664   18.050955   22.276261 C.3        1 MOL1        -0.1308
       9    H6      19.144850   17.459478   21.530018 H          1 MOL1         0.1025
      10    H7      19.729819   17.431651   23.182270 H          1 MOL1         0.1025
      11    C3      18.909829   19.345440   22.616477 C.3        1 MOL1        -0.1243
      12    H8      19.434791   19.896691   23.409294 H          1 MOL1         0.1025
      13    H9      17.935771   19.060557   23.038428 H          1 MOL1         0.1025
      14    C4      18.668909   20.282022   21.410802 C.3        1 MOL1        -0.2258
      15    H10     19.598363   20.760640   21.081081 H          1 MOL1         0.1036
      16    H11     17.972999   21.085216   21.686018 H          1 MOL1         0.1036
      17    H12     18.230684   19.737437   20.564315 H          1 MOL1         0.1036
@<TRIPOS>BOND
    1     1     2    1
    2     1     3    1
    3     1     4    1
    4     1     5    1
    5     5     6    1
    6     5     7    1
    7     5     8    1
    8     8     9    1
    9     8    10    1
   10     8    11    1
   11    11    12    1
   12    11    13    1
   13    11    14    1
   14    14    15    1
   15    14    16    1
   16    14    17    1
@<TRIPOS>SUBSTRUCTURE
       1 MOL1            1 RESIDUE      1      MOL     
@<SCITEGIC>MOL_PROPERTY
VConf Rank
SciTegic.value.IntegerValue
99

@<SCITEGIC>MOL_PROPERTY
Conf_Id
SciTegic.value.IntegerValue
19

@<SCITEGIC>MOL_PROPERTY
Delta U+W
SciTegic.value.DoubleValue
2.662

@<SCITEGIC>MOL_PROPERTY
U+W
SciTegic.value.DoubleValue
-13.203

@<SCITEGIC>MOL_PROPERTY
Grad RMS
SciTegic.value.DoubleValue
0.000000

@<SCITEGIC>MOL_PROPERTY
U
SciTegic.value.DoubleValue
47.423

@<SCITEGIC>MOL_PROPERTY
W
SciTegic.value.DoubleValue
-60.626

@<SCITEGIC>MOL_PROPERTY
W(PB)
SciTegic.value.DoubleValue
-62.328

@<SCITEGIC>MOL_PROPERTY
W(SA)
SciTegic.value.DoubleValue
1.702

@<SCITEGIC>MOL_PROPERTY
Valence
SciTegic.value.DoubleValue
2.414

@<SCITEGIC>MOL_PROPERTY
Coulomb
SciTegic.value.DoubleValue
44.831

@<SCITEGIC>MOL_PROPERTY
VdW
SciTegic.value.DoubleValue
0.178

@<SCITEGIC>MOL_PROPERTY
VdW6
SciTegic.value.DoubleValue
-3.743

@<SCITEGIC>MOL_PROPERTY
VdW12
SciTegic.value.DoubleValue
3.921

@<SCITEGIC>MOL_PROPERTY
Bond
SciTegic.value.DoubleValue
0.138

@<SCITEGIC>MOL_PROPERTY
Angle
SciTegic.value.DoubleValue
0.941

@<SCITEGIC>MOL_PROPERTY
Pdih
SciTegic.value.DoubleValue
1.335

@<SCITEGIC>MOL_PROPERTY
Idih
SciTegic.value.DoubleValue
0.000

@<SCITEGIC>MOL_PROPERTY
Tether
SciTegic.value.DoubleValue
0.000

@<TRIPOS>MOLECULE
guest-1_confgen4.mol2 : confsearch ligand conformer 100
          17          16           1
SMALL
USER_CHARGES
 
@<TRIPOS>ATOM
       1    N1      20.542794   18.489110   19.960641 N.4        1 MOL1        -0.5891
       2    H1      20.612388   17.716951   19.290006 H          1 MOL1         0.3726
       3    H2      21.209812   19.205693   19.658852 H          1 MOL1         0.3726
       4    H3      19.606347   18.889749   19.863695 H          1 MOL1         0.3726
       5    C1      20.813467   18.029454   21.380321 C.3        1 MOL1         0.0314
       6    H4      21.827215   17.620061   21.396107 H          1 MOL1         0.0999
       7    H5      20.118802   17.220785   21.622804 H          1 MOL1         0.0999
       8    C2      20.705628   19.146048   22.440132 C.3        1 MOL1        -0.1308
       9    H6      21.270546   18.823680   23.324887 H          1 MOL1         0.1025
      10    H7      21.204091   20.055567   22.079521 H          1 MOL1         0.1025
      11    C3      19.257569   19.467232   22.890320 C.3        1 MOL1        -0.1243
      12    H8      19.304340   20.193173   23.714221 H          1 MOL1         0.1025
      13    H9      18.791306   18.563674   23.307697 H          1 MOL1         0.1025
      14    C4      18.355228   20.044692   21.776228 C.3        1 MOL1        -0.2258
      15    H10     18.836414   20.893778   21.273570 H          1 MOL1         0.1036
      16    H11     17.408170   20.402400   22.200823 H          1 MOL1         0.1036
      17    H12     18.105093   19.284800   21.026777 H          1 MOL1         0.1036
@<TRIPOS>BOND
    1     1     2    1
    2     1     3    1
    3     1     4    1
    4     1     5    1
    5     5     6    1
    6     5     7    1
    7     5     8    1
    8     8     9    1
    9     8    10    1
   10     8    11    1
   11    11    12    1
   12    11    13    1
   13    11    14    1
   14    14    15    1
   15    14    16    1
   16    14    17    1
@<TRIPOS>SUBSTRUCTURE
       1 MOL1            1 RESIDUE      1      MOL     
@<SCITEGIC>MOL_PROPERTY
VConf Rank
SciTegic.value.IntegerValue
100

@<SCITEGIC>MOL_PROPERTY
Conf_Id
SciTegic.value.IntegerValue
44

@<SCITEGIC>MOL_PROPERTY
Delta U+W
SciTegic.value.DoubleValue
2.712

@<SCITEGIC>MOL_PROPERTY
U+W
SciTegic.value.DoubleValue
-13.153

@<SCITEGIC>MOL_PROPERTY
Grad RMS
SciTegic.value.DoubleValue
0.000000

@<SCITEGIC>MOL_PROPERTY
U
SciTegic.value.DoubleValue
47.423

@<SCITEGIC>MOL_PROPERTY
W
SciTegic.value.DoubleValue
-60.576

@<SCITEGIC>MOL_PROPERTY
W(PB)
SciTegic.value.DoubleValue
-62.262

@<SCITEGIC>MOL_PROPERTY
W(SA)
SciTegic.value.DoubleValue
1.687

@<SCITEGIC>MOL_PROPERTY
Valence
SciTegic.value.DoubleValue
2.414

@<SCITEGIC>MOL_PROPERTY
Coulomb
SciTegic.value.DoubleValue
44.831

@<SCITEGIC>MOL_PROPERTY
VdW
SciTegic.value.DoubleValue
0.178

@<SCITEGIC>MOL_PROPERTY
VdW6
SciTegic.value.DoubleValue
-3.743

@<SCITEGIC>MOL_PROPERTY
VdW12
SciTegic.value.DoubleValue
3.922

@<SCITEGIC>MOL_PROPERTY
Bond
SciTegic.value.DoubleValue
0.138

@<SCITEGIC>MOL_PROPERTY
Angle
SciTegic.value.DoubleValue
0.941

@<SCITEGIC>MOL_PROPERTY
Pdih
SciTegic.value.DoubleValue
1.335

@<SCITEGIC>MOL_PROPERTY
Idih
SciTegic.value.DoubleValue
0.000

@<SCITEGIC>MOL_PROPERTY
Tether
SciTegic.value.DoubleValue
0.000

@<TRIPOS>MOLECULE
guest-1_confgen4.mol2 : confsearch ligand conformer 101
          17          16           1
SMALL
USER_CHARGES
 
@<TRIPOS>ATOM
       1    N1      20.078597   20.334569   23.096183 N.4        1 MOL1        -0.5891
       2    H1      19.409540   19.617033   23.389359 H          1 MOL1         0.3726
       3    H2      19.544804   21.189347   22.912342 H          1 MOL1         0.3726
       4    H3      20.682058   20.528035   23.901833 H          1 MOL1         0.3726
       5    C1      20.878498   19.895516   21.884882 C.3        1 MOL1         0.0314
       6    H4      21.443883   19.000655   22.157586 H          1 MOL1         0.0999
       7    H5      21.593713   20.689277   21.652616 H          1 MOL1         0.0999
       8    C2      20.014824   19.605906   20.639846 C.3        1 MOL1        -0.1308
       9    H6      19.482406   20.521372   20.349672 H          1 MOL1         0.1025
      10    H7      20.679286   19.359867   19.800942 H          1 MOL1         0.1025
      11    C3      18.993866   18.457315   20.834629 C.3        1 MOL1        -0.1243
      12    H8      18.418351   18.334359   19.906422 H          1 MOL1         0.1025
      13    H9      18.264243   18.728083   21.609863 H          1 MOL1         0.1025
      14    C4      19.660075   17.109594   21.194646 C.3        1 MOL1        -0.2258
      15    H10     20.394097   16.816332   20.432887 H          1 MOL1         0.1036
      16    H11     18.907539   16.312978   21.258380 H          1 MOL1         0.1036
      17    H12     20.172862   17.158524   22.163461 H          1 MOL1         0.1036
@<TRIPOS>BOND
    1     1     2    1
    2     1     3    1
    3     1     4    1
    4     1     5    1
    5     5     6    1
    6     5     7    1
    7     5     8    1
    8     8     9    1
    9     8    10    1
   10     8    11    1
   11    11    12    1
   12    11    13    1
   13    11    14    1
   14    14    15    1
   15    14    16    1
   16    14    17    1
@<TRIPOS>SUBSTRUCTURE
       1 MOL1            1 RESIDUE      1      MOL     
@<SCITEGIC>MOL_PROPERTY
VConf Rank
SciTegic.value.IntegerValue
101

@<SCITEGIC>MOL_PROPERTY
Conf_Id
SciTegic.value.IntegerValue
1

@<SCITEGIC>MOL_PROPERTY
Delta U+W
SciTegic.value.DoubleValue
0.685

@<SCITEGIC>MOL_PROPERTY
U+W
SciTegic.value.DoubleValue
-15.179

@<SCITEGIC>MOL_PROPERTY
Grad RMS
SciTegic.value.DoubleValue
0.000000

@<SCITEGIC>MOL_PROPERTY
U
SciTegic.value.DoubleValue
45.697

@<SCITEGIC>MOL_PROPERTY
W
SciTegic.value.DoubleValue
-60.876

@<SCITEGIC>MOL_PROPERTY
W(PB)
SciTegic.value.DoubleValue
-62.586

@<SCITEGIC>MOL_PROPERTY
W(SA)
SciTegic.value.DoubleValue
1.710

@<SCITEGIC>MOL_PROPERTY
Valence
SciTegic.value.DoubleValue
1.263

@<SCITEGIC>MOL_PROPERTY
Coulomb
SciTegic.value.DoubleValue
44.179

@<SCITEGIC>MOL_PROPERTY
VdW
SciTegic.value.DoubleValue
0.255

@<SCITEGIC>MOL_PROPERTY
VdW6
SciTegic.value.DoubleValue
-3.552

@<SCITEGIC>MOL_PROPERTY
VdW12
SciTegic.value.DoubleValue
3.807

@<SCITEGIC>MOL_PROPERTY
Bond
SciTegic.value.DoubleValue
0.125

@<SCITEGIC>MOL_PROPERTY
Angle
SciTegic.value.DoubleValue
0.616

@<SCITEGIC>MOL_PROPERTY
Pdih
SciTegic.value.DoubleValue
0.521

@<SCITEGIC>MOL_PROPERTY
Idih
SciTegic.value.DoubleValue
0.000

@<SCITEGIC>MOL_PROPERTY
Tether
SciTegic.value.DoubleValue
0.000

@<TRIPOS>MOLECULE
guest-1_confgen4.mol2 : confsearch ligand conformer 102
          17          16           1
SMALL
USER_CHARGES
 
@<TRIPOS>ATOM
       1    N1      19.106039   20.811396   21.283245 N.4        1 MOL1        -0.5891
       2    H1      19.818740   21.532965   21.139112 H          1 MOL1         0.3726
       3    H2      19.056564   20.631626   22.290063 H          1 MOL1         0.3726
       4    H3      18.207724   21.221176   21.007969 H          1 MOL1         0.3726
       5    C1      19.413140   19.548682   20.501515 C.3        1 MOL1         0.0314
       6    H4      19.413228   19.806619   19.438967 H          1 MOL1         0.0999
       7    H5      18.602970   18.835942   20.675964 H          1 MOL1         0.0999
       8    C2      20.764025   18.901184   20.869992 C.3        1 MOL1        -0.1308
       9    H6      20.929873   18.036747   20.213451 H          1 MOL1         0.1025
      10    H7      21.574382   19.609686   20.652981 H          1 MOL1         0.1025
      11    C3      20.861924   18.444990   22.347105 C.3        1 MOL1        -0.1243
      12    H8      20.789682   19.313300   23.016040 H          1 MOL1         0.1025
      13    H9      21.857586   18.012339   22.518491 H          1 MOL1         0.1025
      14    C4      19.788054   17.401308   22.730939 C.3        1 MOL1        -0.2258
      15    H10     19.935500   17.059022   23.763445 H          1 MOL1         0.1036
      16    H11     19.840719   16.521822   22.076112 H          1 MOL1         0.1036
      17    H12     18.775839   17.819237   22.662349 H          1 MOL1         0.1036
@<TRIPOS>BOND
    1     1     2    1
    2     1     3    1
    3     1     4    1
    4     1     5    1
    5     5     6    1
    6     5     7    1
    7     5     8    1
    8     8     9    1
    9     8    10    1
   10     8    11    1
   11    11    12    1
   12    11    13    1
   13    11    14    1
   14    14    15    1
   15    14    16    1
   16    14    17    1
@<TRIPOS>SUBSTRUCTURE
       1 MOL1            1 RESIDUE      1      MOL     
@<SCITEGIC>MOL_PROPERTY
VConf Rank
SciTegic.value.IntegerValue
102

@<SCITEGIC>MOL_PROPERTY
Conf_Id
SciTegic.value.IntegerValue
43

@<SCITEGIC>MOL_PROPERTY
Delta U+W
SciTegic.value.DoubleValue
0.642

@<SCITEGIC>MOL_PROPERTY
U+W
SciTegic.value.DoubleValue
-15.222

@<SCITEGIC>MOL_PROPERTY
Grad RMS
SciTegic.value.DoubleValue
0.000000

@<SCITEGIC>MOL_PROPERTY
U
SciTegic.value.DoubleValue
45.697

@<SCITEGIC>MOL_PROPERTY
W
SciTegic.value.DoubleValue
-60.919

@<SCITEGIC>MOL_PROPERTY
W(PB)
SciTegic.value.DoubleValue
-62.631

@<SCITEGIC>MOL_PROPERTY
W(SA)
SciTegic.value.DoubleValue
1.712

@<SCITEGIC>MOL_PROPERTY
Valence
SciTegic.value.DoubleValue
1.262

@<SCITEGIC>MOL_PROPERTY
Coulomb
SciTegic.value.DoubleValue
44.179

@<SCITEGIC>MOL_PROPERTY
VdW
SciTegic.value.DoubleValue
0.255

@<SCITEGIC>MOL_PROPERTY
VdW6
SciTegic.value.DoubleValue
-3.552

@<SCITEGIC>MOL_PROPERTY
VdW12
SciTegic.value.DoubleValue
3.807

@<SCITEGIC>MOL_PROPERTY
Bond
SciTegic.value.DoubleValue
0.125

@<SCITEGIC>MOL_PROPERTY
Angle
SciTegic.value.DoubleValue
0.616

@<SCITEGIC>MOL_PROPERTY
Pdih
SciTegic.value.DoubleValue
0.521

@<SCITEGIC>MOL_PROPERTY
Idih
SciTegic.value.DoubleValue
0.000

@<SCITEGIC>MOL_PROPERTY
Tether
SciTegic.value.DoubleValue
0.000

@<TRIPOS>MOLECULE
guest-1_confgen4.mol2 : confsearch ligand conformer 103
          17          16           1
SMALL
USER_CHARGES
 
@<TRIPOS>ATOM
       1    N1      18.076979   19.886820   23.143196 N.4        1 MOL1        -0.5891
       2    H1      17.423890   19.114125   22.981600 H          1 MOL1         0.3726
       3    H2      17.764502   20.671058   22.562657 H          1 MOL1         0.3726
       4    H3      17.958520   20.175491   24.119692 H          1 MOL1         0.3726
       5    C1      19.509122   19.492433   22.841895 C.3        1 MOL1         0.0314
       6    H4      19.783251   18.675921   23.515456 H          1 MOL1         0.0999
       7    H5      20.149532   20.350119   23.065000 H          1 MOL1         0.0999
       8    C2      19.723039   19.052842   21.382012 C.3        1 MOL1        -0.1308
       9    H6      19.067105   18.201292   21.157059 H          1 MOL1         0.1025
      10    H7      19.432269   19.869771   20.708165 H          1 MOL1         0.1025
      11    C3      21.193224   18.660012   21.117884 C.3        1 MOL1        -0.1243
      12    H8      21.485882   17.844536   21.794402 H          1 MOL1         0.1025
      13    H9      21.850595   19.510988   21.345980 H          1 MOL1         0.1025
      14    C4      21.415421   18.217823   19.655334 C.3        1 MOL1        -0.2258
      15    H10     22.465055   17.943143   19.488393 H          1 MOL1         0.1036
      16    H11     21.163833   19.025423   18.955553 H          1 MOL1         0.1036
      17    H12     20.796189   17.345849   19.407504 H          1 MOL1         0.1036
@<TRIPOS>BOND
    1     1     2    1
    2     1     3    1
    3     1     4    1
    4     1     5    1
    5     5     6    1
    6     5     7    1
    7     5     8    1
    8     8     9    1
    9     8    10    1
   10     8    11    1
   11    11    12    1
   12    11    13    1
   13    11    14    1
   14    14    15    1
   15    14    16    1
   16    14    17    1
@<TRIPOS>SUBSTRUCTURE
       1 MOL1            1 RESIDUE      1      MOL     
@<SCITEGIC>MOL_PROPERTY
VConf Rank
SciTegic.value.IntegerValue
103

@<SCITEGIC>MOL_PROPERTY
Conf_Id
SciTegic.value.IntegerValue
7

@<SCITEGIC>MOL_PROPERTY
Delta U+W
SciTegic.value.DoubleValue
0.000

@<SCITEGIC>MOL_PROPERTY
U+W
SciTegic.value.DoubleValue
-15.865

@<SCITEGIC>MOL_PROPERTY
Grad RMS
SciTegic.value.DoubleValue
0.000000

@<SCITEGIC>MOL_PROPERTY
U
SciTegic.value.DoubleValue
44.664

@<SCITEGIC>MOL_PROPERTY
W
SciTegic.value.DoubleValue
-60.529

@<SCITEGIC>MOL_PROPERTY
W(PB)
SciTegic.value.DoubleValue
-62.309

@<SCITEGIC>MOL_PROPERTY
W(SA)
SciTegic.value.DoubleValue
1.780

@<SCITEGIC>MOL_PROPERTY
Valence
SciTegic.value.DoubleValue
0.872

@<SCITEGIC>MOL_PROPERTY
Coulomb
SciTegic.value.DoubleValue
43.648

@<SCITEGIC>MOL_PROPERTY
VdW
SciTegic.value.DoubleValue
0.144

@<SCITEGIC>MOL_PROPERTY
VdW6
SciTegic.value.DoubleValue
-2.370

@<SCITEGIC>MOL_PROPERTY
VdW12
SciTegic.value.DoubleValue
2.515

@<SCITEGIC>MOL_PROPERTY
Bond
SciTegic.value.DoubleValue
0.080

@<SCITEGIC>MOL_PROPERTY
Angle
SciTegic.value.DoubleValue
0.376

@<SCITEGIC>MOL_PROPERTY
Pdih
SciTegic.value.DoubleValue
0.416

@<SCITEGIC>MOL_PROPERTY
Idih
SciTegic.value.DoubleValue
0.000

@<SCITEGIC>MOL_PROPERTY
Tether
SciTegic.value.DoubleValue
0.000

@<TRIPOS>MOLECULE
guest-1_confgen4.mol2 : confsearch ligand conformer 104
          17          16           1
SMALL
USER_CHARGES
 
@<TRIPOS>ATOM
       1    N1      17.721503   19.352854   20.676530 N.4        1 MOL1        -0.5891
       2    H1      17.280649   20.179002   21.092191 H          1 MOL1         0.3726
       3    H2      17.288120   18.531253   21.108731 H          1 MOL1         0.3726
       4    H3      17.455790   19.341828   19.686520 H          1 MOL1         0.3726
       5    C1      19.226492   19.361356   20.856230 C.3        1 MOL1         0.0314
       6    H4      19.622609   20.244283   20.347369 H          1 MOL1         0.0999
       7    H5      19.628565   18.472313   20.363504 H          1 MOL1         0.0999
       8    C2      19.660961   19.377644   22.334381 C.3        1 MOL1        -0.1308
       9    H6      19.219190   20.252540   22.829630 H          1 MOL1         0.1025
      10    H7      19.261701   18.491711   22.845852 H          1 MOL1         0.1025
      11    C3      21.197491   19.425882   22.503947 C.3        1 MOL1        -0.1243
      12    H8      21.435944   19.516714   23.572999 H          1 MOL1         0.1025
      13    H9      21.595171   20.329664   22.021027 H          1 MOL1         0.1025
      14    C4      21.907877   18.176992   21.933348 C.3        1 MOL1        -0.2258
      15    H10     21.523964   17.258311   22.395692 H          1 MOL1         0.1036
      16    H11     22.986891   18.224698   22.129462 H          1 MOL1         0.1036
      17    H12     21.772465   18.096728   20.847387 H          1 MOL1         0.1036
@<TRIPOS>BOND
    1     1     2    1
    2     1     3    1
    3     1     4    1
    4     1     5    1
    5     5     6    1
    6     5     7    1
    7     5     8    1
    8     8     9    1
    9     8    10    1
   10     8    11    1
   11    11    12    1
   12    11    13    1
   13    11    14    1
   14    14    15    1
   15    14    16    1
   16    14    17    1
@<TRIPOS>SUBSTRUCTURE
       1 MOL1            1 RESIDUE      1      MOL     
@<SCITEGIC>MOL_PROPERTY
VConf Rank
SciTegic.value.IntegerValue
104

@<SCITEGIC>MOL_PROPERTY
Conf_Id
SciTegic.value.IntegerValue
36

@<SCITEGIC>MOL_PROPERTY
Delta U+W
SciTegic.value.DoubleValue
0.275

@<SCITEGIC>MOL_PROPERTY
U+W
SciTegic.value.DoubleValue
-15.590

@<SCITEGIC>MOL_PROPERTY
Grad RMS
SciTegic.value.DoubleValue
0.000000

@<SCITEGIC>MOL_PROPERTY
U
SciTegic.value.DoubleValue
45.174

@<SCITEGIC>MOL_PROPERTY
W
SciTegic.value.DoubleValue
-60.765

@<SCITEGIC>MOL_PROPERTY
W(PB)
SciTegic.value.DoubleValue
-62.518

@<SCITEGIC>MOL_PROPERTY
W(SA)
SciTegic.value.DoubleValue
1.754

@<SCITEGIC>MOL_PROPERTY
Valence
SciTegic.value.DoubleValue
1.161

@<SCITEGIC>MOL_PROPERTY
Coulomb
SciTegic.value.DoubleValue
43.789

@<SCITEGIC>MOL_PROPERTY
VdW
SciTegic.value.DoubleValue
0.224

@<SCITEGIC>MOL_PROPERTY
VdW6
SciTegic.value.DoubleValue
-2.897

@<SCITEGIC>MOL_PROPERTY
VdW12
SciTegic.value.DoubleValue
3.121

@<SCITEGIC>MOL_PROPERTY
Bond
SciTegic.value.DoubleValue
0.100

@<SCITEGIC>MOL_PROPERTY
Angle
SciTegic.value.DoubleValue
0.500

@<SCITEGIC>MOL_PROPERTY
Pdih
SciTegic.value.DoubleValue
0.561

@<SCITEGIC>MOL_PROPERTY
Idih
SciTegic.value.DoubleValue
0.000

@<SCITEGIC>MOL_PROPERTY
Tether
SciTegic.value.DoubleValue
0.000

@<TRIPOS>MOLECULE
guest-1_confgen4.mol2 : confsearch ligand conformer 105
          17          16           1
SMALL
USER_CHARGES
 
@<TRIPOS>ATOM
       1    N1      19.585857   20.810173   21.691108 N.4        1 MOL1        -0.5891
       2    H1      19.031093   20.360101   20.958634 H          1 MOL1         0.3726
       3    H2      20.374309   21.273937   21.229864 H          1 MOL1         0.3726
       4    H3      19.004493   21.548776   22.100137 H          1 MOL1         0.3726
       5    C1      20.050799   19.814378   22.736216 C.3        1 MOL1         0.0314
       6    H4      19.172180   19.403206   23.240466 H          1 MOL1         0.0999
       7    H5      20.632917   20.373378   23.473912 H          1 MOL1         0.0999
       8    C2      20.917338   18.666174   22.177335 C.3        1 MOL1        -0.1308
       9    H6      21.654638   19.063446   21.467200 H          1 MOL1         0.1025
      10    H7      21.497072   18.247894   23.010880 H          1 MOL1         0.1025
      11    C3      20.112812   17.510576   21.529232 C.3        1 MOL1        -0.1243
      12    H8      19.423279   17.080020   22.268952 H          1 MOL1         0.1025
      13    H9      20.814137   16.706995   21.263921 H          1 MOL1         0.1025
      14    C4      19.323677   17.913109   20.262695 C.3        1 MOL1        -0.2258
      15    H10     18.472067   18.558513   20.507420 H          1 MOL1         0.1036
      16    H11     18.919700   17.021036   19.766546 H          1 MOL1         0.1036
      17    H12     19.966832   18.433005   19.540744 H          1 MOL1         0.1036
@<TRIPOS>BOND
    1     1     2    1
    2     1     3    1
    3     1     4    1
    4     1     5    1
    5     5     6    1
    6     5     7    1
    7     5     8    1
    8     8     9    1
    9     8    10    1
   10     8    11    1
   11    11    12    1
   12    11    13    1
   13    11    14    1
   14    14    15    1
   15    14    16    1
   16    14    17    1
@<TRIPOS>SUBSTRUCTURE
       1 MOL1            1 RESIDUE      1      MOL     
@<SCITEGIC>MOL_PROPERTY
VConf Rank
SciTegic.value.IntegerValue
105

@<SCITEGIC>MOL_PROPERTY
Conf_Id
SciTegic.value.IntegerValue
19

@<SCITEGIC>MOL_PROPERTY
Delta U+W
SciTegic.value.DoubleValue
2.662

@<SCITEGIC>MOL_PROPERTY
U+W
SciTegic.value.DoubleValue
-13.203

@<SCITEGIC>MOL_PROPERTY
Grad RMS
SciTegic.value.DoubleValue
0.000000

@<SCITEGIC>MOL_PROPERTY
U
SciTegic.value.DoubleValue
47.423

@<SCITEGIC>MOL_PROPERTY
W
SciTegic.value.DoubleValue
-60.626

@<SCITEGIC>MOL_PROPERTY
W(PB)
SciTegic.value.DoubleValue
-62.328

@<SCITEGIC>MOL_PROPERTY
W(SA)
SciTegic.value.DoubleValue
1.702

@<SCITEGIC>MOL_PROPERTY
Valence
SciTegic.value.DoubleValue
2.414

@<SCITEGIC>MOL_PROPERTY
Coulomb
SciTegic.value.DoubleValue
44.831

@<SCITEGIC>MOL_PROPERTY
VdW
SciTegic.value.DoubleValue
0.178

@<SCITEGIC>MOL_PROPERTY
VdW6
SciTegic.value.DoubleValue
-3.743

@<SCITEGIC>MOL_PROPERTY
VdW12
SciTegic.value.DoubleValue
3.921

@<SCITEGIC>MOL_PROPERTY
Bond
SciTegic.value.DoubleValue
0.138

@<SCITEGIC>MOL_PROPERTY
Angle
SciTegic.value.DoubleValue
0.941

@<SCITEGIC>MOL_PROPERTY
Pdih
SciTegic.value.DoubleValue
1.335

@<SCITEGIC>MOL_PROPERTY
Idih
SciTegic.value.DoubleValue
0.000

@<SCITEGIC>MOL_PROPERTY
Tether
SciTegic.value.DoubleValue
0.000

@<TRIPOS>MOLECULE
guest-1_confgen4.mol2 : confsearch ligand conformer 106
          17          16           1
SMALL
USER_CHARGES
 
@<TRIPOS>ATOM
       1    N1      18.955704   20.652475   21.338100 N.4        1 MOL1        -0.5891
       2    H1      19.012570   21.674514   21.283075 H          1 MOL1         0.3726
       3    H2      17.960806   20.412277   21.382397 H          1 MOL1         0.3726
       4    H3      19.315670   20.282057   20.454891 H          1 MOL1         0.3726
       5    C1      19.720386   20.108212   22.529351 C.3        1 MOL1         0.0314
       6    H4      19.273773   20.549234   23.424657 H          1 MOL1         0.0999
       7    H5      20.756319   20.451622   22.464441 H          1 MOL1         0.0999
       8    C2      19.686811   18.570541   22.656050 C.3        1 MOL1        -0.1308
       9    H6      19.916679   18.315373   23.699073 H          1 MOL1         0.1025
      10    H7      18.669279   18.200707   22.472800 H          1 MOL1         0.1025
      11    C3      20.701621   17.828593   21.749201 C.3        1 MOL1        -0.1243
      12    H8      20.666761   16.757862   21.994784 H          1 MOL1         0.1025
      13    H9      21.721785   18.161639   21.986621 H          1 MOL1         0.1025
      14    C4      20.445182   17.994609   20.234092 C.3        1 MOL1        -0.2258
      15    H10     19.403813   17.759865   19.977972 H          1 MOL1         0.1036
      16    H11     21.089996   17.314598   19.662291 H          1 MOL1         0.1036
      17    H12     20.672056   19.012669   19.896808 H          1 MOL1         0.1036
@<TRIPOS>BOND
    1     1     2    1
    2     1     3    1
    3     1     4    1
    4     1     5    1
    5     5     6    1
    6     5     7    1
    7     5     8    1
    8     8     9    1
    9     8    10    1
   10     8    11    1
   11    11    12    1
   12    11    13    1
   13    11    14    1
   14    14    15    1
   15    14    16    1
   16    14    17    1
@<TRIPOS>SUBSTRUCTURE
       1 MOL1            1 RESIDUE      1      MOL     
@<SCITEGIC>MOL_PROPERTY
VConf Rank
SciTegic.value.IntegerValue
106

@<SCITEGIC>MOL_PROPERTY
Conf_Id
SciTegic.value.IntegerValue
44

@<SCITEGIC>MOL_PROPERTY
Delta U+W
SciTegic.value.DoubleValue
2.712

@<SCITEGIC>MOL_PROPERTY
U+W
SciTegic.value.DoubleValue
-13.153

@<SCITEGIC>MOL_PROPERTY
Grad RMS
SciTegic.value.DoubleValue
0.000000

@<SCITEGIC>MOL_PROPERTY
U
SciTegic.value.DoubleValue
47.423

@<SCITEGIC>MOL_PROPERTY
W
SciTegic.value.DoubleValue
-60.576

@<SCITEGIC>MOL_PROPERTY
W(PB)
SciTegic.value.DoubleValue
-62.262

@<SCITEGIC>MOL_PROPERTY
W(SA)
SciTegic.value.DoubleValue
1.687

@<SCITEGIC>MOL_PROPERTY
Valence
SciTegic.value.DoubleValue
2.414

@<SCITEGIC>MOL_PROPERTY
Coulomb
SciTegic.value.DoubleValue
44.831

@<SCITEGIC>MOL_PROPERTY
VdW
SciTegic.value.DoubleValue
0.178

@<SCITEGIC>MOL_PROPERTY
VdW6
SciTegic.value.DoubleValue
-3.743

@<SCITEGIC>MOL_PROPERTY
VdW12
SciTegic.value.DoubleValue
3.922

@<SCITEGIC>MOL_PROPERTY
Bond
SciTegic.value.DoubleValue
0.138

@<SCITEGIC>MOL_PROPERTY
Angle
SciTegic.value.DoubleValue
0.941

@<SCITEGIC>MOL_PROPERTY
Pdih
SciTegic.value.DoubleValue
1.335

@<SCITEGIC>MOL_PROPERTY
Idih
SciTegic.value.DoubleValue
0.000

@<SCITEGIC>MOL_PROPERTY
Tether
SciTegic.value.DoubleValue
0.000

@<TRIPOS>MOLECULE
guest-1_confgen4.mol2 : confsearch ligand conformer 107
          17          16           1
SMALL
USER_CHARGES
 
@<TRIPOS>ATOM
       1    N1      21.124178   17.696727   20.767461 N.4        1 MOL1        -0.5891
       2    H1      20.646766   18.185874   20.005057 H          1 MOL1         0.3726
       3    H2      20.727937   16.753376   20.817075 H          1 MOL1         0.3726
       4    H3      22.105104   17.593211   20.488648 H          1 MOL1         0.3726
       5    C1      20.987071   18.437920   22.083399 C.3        1 MOL1         0.0314
       6    H4      21.453820   19.419823   21.970196 H          1 MOL1         0.0999
       7    H5      21.548900   17.881868   22.838841 H          1 MOL1         0.0999
       8    C2      19.527608   18.606769   22.553909 C.3        1 MOL1        -0.1308
       9    H6      19.080268   17.615222   22.703812 H          1 MOL1         0.1025
      10    H7      19.530012   19.092978   23.538489 H          1 MOL1         0.1025
      11    C3      18.643538   19.428024   21.582561 C.3        1 MOL1        -0.1243
      12    H8      17.624828   19.482290   21.991450 H          1 MOL1         0.1025
      13    H9      18.556068   18.906989   20.619480 H          1 MOL1         0.1025
      14    C4      19.169232   20.863407   21.352089 C.3        1 MOL1        -0.2258
      15    H10     19.264462   21.405968   22.301629 H          1 MOL1         0.1036
      16    H11     18.479112   21.428030   20.711851 H          1 MOL1         0.1036
      17    H12     20.149740   20.860285   20.859602 H          1 MOL1         0.1036
@<TRIPOS>BOND
    1     1     2    1
    2     1     3    1
    3     1     4    1
    4     1     5    1
    5     5     6    1
    6     5     7    1
    7     5     8    1
    8     8     9    1
    9     8    10    1
   10     8    11    1
   11    11    12    1
   12    11    13    1
   13    11    14    1
   14    14    15    1
   15    14    16    1
   16    14    17    1
@<TRIPOS>SUBSTRUCTURE
       1 MOL1            1 RESIDUE      1      MOL     
@<SCITEGIC>MOL_PROPERTY
VConf Rank
SciTegic.value.IntegerValue
107

@<SCITEGIC>MOL_PROPERTY
Conf_Id
SciTegic.value.IntegerValue
1

@<SCITEGIC>MOL_PROPERTY
Delta U+W
SciTegic.value.DoubleValue
0.685

@<SCITEGIC>MOL_PROPERTY
U+W
SciTegic.value.DoubleValue
-15.179

@<SCITEGIC>MOL_PROPERTY
Grad RMS
SciTegic.value.DoubleValue
0.000000

@<SCITEGIC>MOL_PROPERTY
U
SciTegic.value.DoubleValue
45.697

@<SCITEGIC>MOL_PROPERTY
W
SciTegic.value.DoubleValue
-60.876

@<SCITEGIC>MOL_PROPERTY
W(PB)
SciTegic.value.DoubleValue
-62.586

@<SCITEGIC>MOL_PROPERTY
W(SA)
SciTegic.value.DoubleValue
1.710

@<SCITEGIC>MOL_PROPERTY
Valence
SciTegic.value.DoubleValue
1.263

@<SCITEGIC>MOL_PROPERTY
Coulomb
SciTegic.value.DoubleValue
44.179

@<SCITEGIC>MOL_PROPERTY
VdW
SciTegic.value.DoubleValue
0.255

@<SCITEGIC>MOL_PROPERTY
VdW6
SciTegic.value.DoubleValue
-3.552

@<SCITEGIC>MOL_PROPERTY
VdW12
SciTegic.value.DoubleValue
3.807

@<SCITEGIC>MOL_PROPERTY
Bond
SciTegic.value.DoubleValue
0.125

@<SCITEGIC>MOL_PROPERTY
Angle
SciTegic.value.DoubleValue
0.616

@<SCITEGIC>MOL_PROPERTY
Pdih
SciTegic.value.DoubleValue
0.521

@<SCITEGIC>MOL_PROPERTY
Idih
SciTegic.value.DoubleValue
0.000

@<SCITEGIC>MOL_PROPERTY
Tether
SciTegic.value.DoubleValue
0.000

@<TRIPOS>MOLECULE
guest-1_confgen4.mol2 : confsearch ligand conformer 108
          17          16           1
SMALL
USER_CHARGES
 
@<TRIPOS>ATOM
       1    N1      20.139851   20.124583   23.242801 N.4        1 MOL1        -0.5891
       2    H1      20.460569   21.072559   23.024034 H          1 MOL1         0.3726
       3    H2      20.955140   19.507953   23.183469 H          1 MOL1         0.3726
       4    H3      19.839970   20.130632   24.222955 H          1 MOL1         0.3726
       5    C1      19.027176   19.675587   22.315323 C.3        1 MOL1         0.0314
       6    H4      18.180810   20.352891   22.458368 H          1 MOL1         0.0999
       7    H5      18.713712   18.674079   22.621147 H          1 MOL1         0.0999
       8    C2      19.425507   19.663628   20.824985 C.3        1 MOL1        -0.1308
       9    H6      18.545127   19.390308   20.228304 H          1 MOL1         0.1025
      10    H7      19.699465   20.681386   20.516983 H          1 MOL1         0.1025
      11    C3      20.587557   18.695234   20.491198 C.3        1 MOL1        -0.1243
      12    H8      21.502728   19.010392   21.010613 H          1 MOL1         0.1025
      13    H9      20.809183   18.765538   19.417026 H          1 MOL1         0.1025
      14    C4      20.269628   17.223873   20.843072 C.3        1 MOL1        -0.2258
      15    H10     21.091613   16.566954   20.530398 H          1 MOL1         0.1036
      16    H11     19.358037   16.884570   20.334209 H          1 MOL1         0.1036
      17    H12     20.129915   17.087871   21.922856 H          1 MOL1         0.1036
@<TRIPOS>BOND
    1     1     2    1
    2     1     3    1
    3     1     4    1
    4     1     5    1
    5     5     6    1
    6     5     7    1
    7     5     8    1
    8     8     9    1
    9     8    10    1
   10     8    11    1
   11    11    12    1
   12    11    13    1
   13    11    14    1
   14    14    15    1
   15    14    16    1
   16    14    17    1
@<TRIPOS>SUBSTRUCTURE
       1 MOL1            1 RESIDUE      1      MOL     
@<SCITEGIC>MOL_PROPERTY
VConf Rank
SciTegic.value.IntegerValue
108

@<SCITEGIC>MOL_PROPERTY
Conf_Id
SciTegic.value.IntegerValue
43

@<SCITEGIC>MOL_PROPERTY
Delta U+W
SciTegic.value.DoubleValue
0.642

@<SCITEGIC>MOL_PROPERTY
U+W
SciTegic.value.DoubleValue
-15.222

@<SCITEGIC>MOL_PROPERTY
Grad RMS
SciTegic.value.DoubleValue
0.000000

@<SCITEGIC>MOL_PROPERTY
U
SciTegic.value.DoubleValue
45.697

@<SCITEGIC>MOL_PROPERTY
W
SciTegic.value.DoubleValue
-60.919

@<SCITEGIC>MOL_PROPERTY
W(PB)
SciTegic.value.DoubleValue
-62.631

@<SCITEGIC>MOL_PROPERTY
W(SA)
SciTegic.value.DoubleValue
1.712

@<SCITEGIC>MOL_PROPERTY
Valence
SciTegic.value.DoubleValue
1.262

@<SCITEGIC>MOL_PROPERTY
Coulomb
SciTegic.value.DoubleValue
44.179

@<SCITEGIC>MOL_PROPERTY
VdW
SciTegic.value.DoubleValue
0.255

@<SCITEGIC>MOL_PROPERTY
VdW6
SciTegic.value.DoubleValue
-3.552

@<SCITEGIC>MOL_PROPERTY
VdW12
SciTegic.value.DoubleValue
3.807

@<SCITEGIC>MOL_PROPERTY
Bond
SciTegic.value.DoubleValue
0.125

@<SCITEGIC>MOL_PROPERTY
Angle
SciTegic.value.DoubleValue
0.616

@<SCITEGIC>MOL_PROPERTY
Pdih
SciTegic.value.DoubleValue
0.521

@<SCITEGIC>MOL_PROPERTY
Idih
SciTegic.value.DoubleValue
0.000

@<SCITEGIC>MOL_PROPERTY
Tether
SciTegic.value.DoubleValue
0.000

@<TRIPOS>MOLECULE
guest-1_confgen4.mol2 : confsearch ligand conformer 109
          17          16           1
SMALL
USER_CHARGES
 
@<TRIPOS>ATOM
       1    N1      18.311318   17.813115   20.077860 N.4        1 MOL1        -0.5891
       2    H1      18.218960   18.538657   19.360396 H          1 MOL1         0.3726
       3    H2      17.488683   17.883636   20.684486 H          1 MOL1         0.3726
       4    H3      18.247673   16.910420   19.596197 H          1 MOL1         0.3726
       5    C1      19.604613   17.946194   20.856986 C.3        1 MOL1         0.0314
       6    H4      20.434982   17.830622   20.155093 H          1 MOL1         0.0999
       7    H5      19.649721   17.126232   21.578894 H          1 MOL1         0.0999
       8    C2      19.733345   19.291886   21.593736 C.3        1 MOL1        -0.1308
       9    H6      19.672087   20.113320   20.867454 H          1 MOL1         0.1025
      10    H7      18.889620   19.411286   22.286456 H          1 MOL1         0.1025
      11    C3      21.063122   19.386239   22.373680 C.3        1 MOL1        -0.1243
      12    H8      21.908020   19.263473   21.681290 H          1 MOL1         0.1025
      13    H9      21.126482   18.562350   23.098607 H          1 MOL1         0.1025
      14    C4      21.199331   20.733606   23.115301 C.3        1 MOL1        -0.2258
      15    H10     22.149730   20.780722   23.662631 H          1 MOL1         0.1036
      16    H11     20.386538   20.869614   23.840612 H          1 MOL1         0.1036
      17    H12     21.174182   21.576273   22.412102 H          1 MOL1         0.1036
@<TRIPOS>BOND
    1     1     2    1
    2     1     3    1
    3     1     4    1
    4     1     5    1
    5     5     6    1
    6     5     7    1
    7     5     8    1
    8     8     9    1
    9     8    10    1
   10     8    11    1
   11    11    12    1
   12    11    13    1
   13    11    14    1
   14    14    15    1
   15    14    16    1
   16    14    17    1
@<TRIPOS>SUBSTRUCTURE
       1 MOL1            1 RESIDUE      1      MOL     
@<SCITEGIC>MOL_PROPERTY
VConf Rank
SciTegic.value.IntegerValue
109

@<SCITEGIC>MOL_PROPERTY
Conf_Id
SciTegic.value.IntegerValue
7

@<SCITEGIC>MOL_PROPERTY
Delta U+W
SciTegic.value.DoubleValue
0.000

@<SCITEGIC>MOL_PROPERTY
U+W
SciTegic.value.DoubleValue
-15.865

@<SCITEGIC>MOL_PROPERTY
Grad RMS
SciTegic.value.DoubleValue
0.000000

@<SCITEGIC>MOL_PROPERTY
U
SciTegic.value.DoubleValue
44.664

@<SCITEGIC>MOL_PROPERTY
W
SciTegic.value.DoubleValue
-60.529

@<SCITEGIC>MOL_PROPERTY
W(PB)
SciTegic.value.DoubleValue
-62.309

@<SCITEGIC>MOL_PROPERTY
W(SA)
SciTegic.value.DoubleValue
1.780

@<SCITEGIC>MOL_PROPERTY
Valence
SciTegic.value.DoubleValue
0.872

@<SCITEGIC>MOL_PROPERTY
Coulomb
SciTegic.value.DoubleValue
43.648

@<SCITEGIC>MOL_PROPERTY
VdW
SciTegic.value.DoubleValue
0.144

@<SCITEGIC>MOL_PROPERTY
VdW6
SciTegic.value.DoubleValue
-2.370

@<SCITEGIC>MOL_PROPERTY
VdW12
SciTegic.value.DoubleValue
2.515

@<SCITEGIC>MOL_PROPERTY
Bond
SciTegic.value.DoubleValue
0.080

@<SCITEGIC>MOL_PROPERTY
Angle
SciTegic.value.DoubleValue
0.376

@<SCITEGIC>MOL_PROPERTY
Pdih
SciTegic.value.DoubleValue
0.416

@<SCITEGIC>MOL_PROPERTY
Idih
SciTegic.value.DoubleValue
0.000

@<SCITEGIC>MOL_PROPERTY
Tether
SciTegic.value.DoubleValue
0.000

@<TRIPOS>MOLECULE
guest-1_confgen4.mol2 : confsearch ligand conformer 110
          17          16           1
SMALL
USER_CHARGES
 
@<TRIPOS>ATOM
       1    N1      21.935386   17.850502   21.121537 N.4        1 MOL1        -0.5891
       2    H1      22.633792   18.049915   21.844110 H          1 MOL1         0.3726
       3    H2      22.215429   18.366738   20.282059 H          1 MOL1         0.3726
       4    H3      22.017294   16.853533   20.897513 H          1 MOL1         0.3726
       5    C1      20.534109   18.214151   21.570466 C.3        1 MOL1         0.0314
       6    H4      20.291936   17.607298   22.447102 H          1 MOL1         0.0999
       7    H5      19.843733   17.946133   20.766485 H          1 MOL1         0.0999
       8    C2      20.375809   19.707488   21.915202 C.3        1 MOL1        -0.1308
       9    H6      21.100884   19.975530   22.695135 H          1 MOL1         0.1025
      10    H7      20.620664   20.317035   21.035210 H          1 MOL1         0.1025
      11    C3      18.952738   20.058007   22.409177 C.3        1 MOL1        -0.1243
      12    H8      18.930311   21.114097   22.712740 H          1 MOL1         0.1025
      13    H9      18.718733   19.472855   23.309744 H          1 MOL1         0.1025
      14    C4      17.864912   19.818425   21.337172 C.3        1 MOL1        -0.2258
      15    H10     18.078554   20.387958   20.423326 H          1 MOL1         0.1036
      16    H11     16.882162   20.137182   21.708119 H          1 MOL1         0.1036
      17    H12     17.788936   18.756927   21.069701 H          1 MOL1         0.1036
@<TRIPOS>BOND
    1     1     2    1
    2     1     3    1
    3     1     4    1
    4     1     5    1
    5     5     6    1
    6     5     7    1
    7     5     8    1
    8     8     9    1
    9     8    10    1
   10     8    11    1
   11    11    12    1
   12    11    13    1
   13    11    14    1
   14    14    15    1
   15    14    16    1
   16    14    17    1
@<TRIPOS>SUBSTRUCTURE
       1 MOL1            1 RESIDUE      1      MOL     
@<SCITEGIC>MOL_PROPERTY
VConf Rank
SciTegic.value.IntegerValue
110

@<SCITEGIC>MOL_PROPERTY
Conf_Id
SciTegic.value.IntegerValue
36

@<SCITEGIC>MOL_PROPERTY
Delta U+W
SciTegic.value.DoubleValue
0.275

@<SCITEGIC>MOL_PROPERTY
U+W
SciTegic.value.DoubleValue
-15.590

@<SCITEGIC>MOL_PROPERTY
Grad RMS
SciTegic.value.DoubleValue
0.000000

@<SCITEGIC>MOL_PROPERTY
U
SciTegic.value.DoubleValue
45.174

@<SCITEGIC>MOL_PROPERTY
W
SciTegic.value.DoubleValue
-60.765

@<SCITEGIC>MOL_PROPERTY
W(PB)
SciTegic.value.DoubleValue
-62.518

@<SCITEGIC>MOL_PROPERTY
W(SA)
SciTegic.value.DoubleValue
1.754

@<SCITEGIC>MOL_PROPERTY
Valence
SciTegic.value.DoubleValue
1.161

@<SCITEGIC>MOL_PROPERTY
Coulomb
SciTegic.value.DoubleValue
43.789

@<SCITEGIC>MOL_PROPERTY
VdW
SciTegic.value.DoubleValue
0.224

@<SCITEGIC>MOL_PROPERTY
VdW6
SciTegic.value.DoubleValue
-2.897

@<SCITEGIC>MOL_PROPERTY
VdW12
SciTegic.value.DoubleValue
3.121

@<SCITEGIC>MOL_PROPERTY
Bond
SciTegic.value.DoubleValue
0.100

@<SCITEGIC>MOL_PROPERTY
Angle
SciTegic.value.DoubleValue
0.500

@<SCITEGIC>MOL_PROPERTY
Pdih
SciTegic.value.DoubleValue
0.561

@<SCITEGIC>MOL_PROPERTY
Idih
SciTegic.value.DoubleValue
0.000

@<SCITEGIC>MOL_PROPERTY
Tether
SciTegic.value.DoubleValue
0.000

@<TRIPOS>MOLECULE
guest-1_confgen4.mol2 : confsearch ligand conformer 111
          17          16           1
SMALL
USER_CHARGES
 
@<TRIPOS>ATOM
       1    N1      18.868819   18.801940   20.092631 N.4        1 MOL1        -0.5891
       2    H1      19.845383   18.969339   19.837397 H          1 MOL1         0.3726
       3    H2      18.372779   19.691946   19.986270 H          1 MOL1         0.3726
       4    H3      18.479666   18.159540   19.394988 H          1 MOL1         0.3726
       5    C1      18.742002   18.250803   21.499825 C.3        1 MOL1         0.0314
       6    H4      19.229475   17.272861   21.535905 H          1 MOL1         0.0999
       7    H5      17.675477   18.103873   21.690803 H          1 MOL1         0.0999
       8    C2      19.327338   19.166929   22.595137 C.3        1 MOL1        -0.1308
       9    H6      19.031512   20.208303   22.411406 H          1 MOL1         0.1025
      10    H7      18.863265   18.886023   23.549901 H          1 MOL1         0.1025
      11    C3      20.864764   19.065026   22.764374 C.3        1 MOL1        -0.1243
      12    H8      21.141729   18.030211   23.010283 H          1 MOL1         0.1025
      13    H9      21.158361   19.672420   23.632051 H          1 MOL1         0.1025
      14    C4      21.675560   19.537178   21.536138 C.3        1 MOL1        -0.2258
      15    H10     21.578927   18.838116   20.697299 H          1 MOL1         0.1036
      16    H11     22.743177   19.596337   21.784833 H          1 MOL1         0.1036
      17    H12     21.354964   20.533870   21.206019 H          1 MOL1         0.1036
@<TRIPOS>BOND
    1     1     2    1
    2     1     3    1
    3     1     4    1
    4     1     5    1
    5     5     6    1
    6     5     7    1
    7     5     8    1
    8     8     9    1
    9     8    10    1
   10     8    11    1
   11    11    12    1
   12    11    13    1
   13    11    14    1
   14    14    15    1
   15    14    16    1
   16    14    17    1
@<TRIPOS>SUBSTRUCTURE
       1 MOL1            1 RESIDUE      1      MOL     
@<SCITEGIC>MOL_PROPERTY
VConf Rank
SciTegic.value.IntegerValue
111

@<SCITEGIC>MOL_PROPERTY
Conf_Id
SciTegic.value.IntegerValue
19

@<SCITEGIC>MOL_PROPERTY
Delta U+W
SciTegic.value.DoubleValue
2.662

@<SCITEGIC>MOL_PROPERTY
U+W
SciTegic.value.DoubleValue
-13.203

@<SCITEGIC>MOL_PROPERTY
Grad RMS
SciTegic.value.DoubleValue
0.000000

@<SCITEGIC>MOL_PROPERTY
U
SciTegic.value.DoubleValue
47.423

@<SCITEGIC>MOL_PROPERTY
W
SciTegic.value.DoubleValue
-60.626

@<SCITEGIC>MOL_PROPERTY
W(PB)
SciTegic.value.DoubleValue
-62.328

@<SCITEGIC>MOL_PROPERTY
W(SA)
SciTegic.value.DoubleValue
1.702

@<SCITEGIC>MOL_PROPERTY
Valence
SciTegic.value.DoubleValue
2.414

@<SCITEGIC>MOL_PROPERTY
Coulomb
SciTegic.value.DoubleValue
44.831

@<SCITEGIC>MOL_PROPERTY
VdW
SciTegic.value.DoubleValue
0.178

@<SCITEGIC>MOL_PROPERTY
VdW6
SciTegic.value.DoubleValue
-3.743

@<SCITEGIC>MOL_PROPERTY
VdW12
SciTegic.value.DoubleValue
3.921

@<SCITEGIC>MOL_PROPERTY
Bond
SciTegic.value.DoubleValue
0.138

@<SCITEGIC>MOL_PROPERTY
Angle
SciTegic.value.DoubleValue
0.941

@<SCITEGIC>MOL_PROPERTY
Pdih
SciTegic.value.DoubleValue
1.335

@<SCITEGIC>MOL_PROPERTY
Idih
SciTegic.value.DoubleValue
0.000

@<SCITEGIC>MOL_PROPERTY
Tether
SciTegic.value.DoubleValue
0.000

@<TRIPOS>MOLECULE
guest-1_confgen4.mol2 : confsearch ligand conformer 112
          17          16           1
SMALL
USER_CHARGES
 
@<TRIPOS>ATOM
       1    N1      19.300802   20.556821   20.660589 N.4        1 MOL1        -0.5891
       2    H1      19.271579   21.580616   20.617989 H          1 MOL1         0.3726
       3    H2      18.639113   20.211312   19.958968 H          1 MOL1         0.3726
       4    H3      20.235510   20.268689   20.360350 H          1 MOL1         0.3726
       5    C1      18.971791   20.040280   22.048024 C.3        1 MOL1         0.0314
       6    H4      17.963666   20.388842   22.288286 H          1 MOL1         0.0999
       7    H5      19.664962   20.493611   22.761682 H          1 MOL1         0.0999
       8    C2      19.017153   18.503361   22.180064 C.3        1 MOL1        -0.1308
       9    H6      18.416776   18.224662   23.056261 H          1 MOL1         0.1025
      10    H7      18.524048   18.037490   21.316617 H          1 MOL1         0.1025
      11    C3      20.439061   17.916299   22.370429 C.3        1 MOL1        -0.1243
      12    H8      20.345674   16.837421   22.558289 H          1 MOL1         0.1025
      13    H9      20.897347   18.343338   23.273554 H          1 MOL1         0.1025
      14    C4      21.383654   18.126029   21.165176 C.3        1 MOL1        -0.2258
      15    H10     20.915030   17.795287   20.229146 H          1 MOL1         0.1036
      16    H11     22.305817   17.545621   21.298963 H          1 MOL1         0.1036
      17    H12     21.677229   19.177168   21.062216 H          1 MOL1         0.1036
@<TRIPOS>BOND
    1     1     2    1
    2     1     3    1
    3     1     4    1
    4     1     5    1
    5     5     6    1
    6     5     7    1
    7     5     8    1
    8     8     9    1
    9     8    10    1
   10     8    11    1
   11    11    12    1
   12    11    13    1
   13    11    14    1
   14    14    15    1
   15    14    16    1
   16    14    17    1
@<TRIPOS>SUBSTRUCTURE
       1 MOL1            1 RESIDUE      1      MOL     
@<SCITEGIC>MOL_PROPERTY
VConf Rank
SciTegic.value.IntegerValue
112

@<SCITEGIC>MOL_PROPERTY
Conf_Id
SciTegic.value.IntegerValue
44

@<SCITEGIC>MOL_PROPERTY
Delta U+W
SciTegic.value.DoubleValue
2.712

@<SCITEGIC>MOL_PROPERTY
U+W
SciTegic.value.DoubleValue
-13.153

@<SCITEGIC>MOL_PROPERTY
Grad RMS
SciTegic.value.DoubleValue
0.000000

@<SCITEGIC>MOL_PROPERTY
U
SciTegic.value.DoubleValue
47.423

@<SCITEGIC>MOL_PROPERTY
W
SciTegic.value.DoubleValue
-60.576

@<SCITEGIC>MOL_PROPERTY
W(PB)
SciTegic.value.DoubleValue
-62.262

@<SCITEGIC>MOL_PROPERTY
W(SA)
SciTegic.value.DoubleValue
1.687

@<SCITEGIC>MOL_PROPERTY
Valence
SciTegic.value.DoubleValue
2.414

@<SCITEGIC>MOL_PROPERTY
Coulomb
SciTegic.value.DoubleValue
44.831

@<SCITEGIC>MOL_PROPERTY
VdW
SciTegic.value.DoubleValue
0.178

@<SCITEGIC>MOL_PROPERTY
VdW6
SciTegic.value.DoubleValue
-3.743

@<SCITEGIC>MOL_PROPERTY
VdW12
SciTegic.value.DoubleValue
3.922

@<SCITEGIC>MOL_PROPERTY
Bond
SciTegic.value.DoubleValue
0.138

@<SCITEGIC>MOL_PROPERTY
Angle
SciTegic.value.DoubleValue
0.941

@<SCITEGIC>MOL_PROPERTY
Pdih
SciTegic.value.DoubleValue
1.335

@<SCITEGIC>MOL_PROPERTY
Idih
SciTegic.value.DoubleValue
0.000

@<SCITEGIC>MOL_PROPERTY
Tether
SciTegic.value.DoubleValue
0.000

@<TRIPOS>MOLECULE
guest-1_confgen4.mol2 : confsearch ligand conformer 113
          17          16           1
SMALL
USER_CHARGES
 
@<TRIPOS>ATOM
       1    N1      19.480601   17.364976   20.623283 N.4        1 MOL1        -0.5891
       2    H1      18.623191   17.923271   20.663311 H          1 MOL1         0.3726
       3    H2      19.358625   16.576182   21.265392 H          1 MOL1         0.3726
       4    H3      19.538544   16.972976   19.677955 H          1 MOL1         0.3726
       5    C1      20.705214   18.190614   20.967528 C.3        1 MOL1         0.0314
       6    H4      20.792130   18.992723   20.230052 H          1 MOL1         0.0999
       7    H5      21.581361   17.544044   20.868278 H          1 MOL1         0.0999
       8    C2      20.672085   18.791320   22.388083 C.3        1 MOL1        -0.1308
       9    H6      20.625811   17.976657   23.122884 H          1 MOL1         0.1025
      10    H7      21.620392   19.314010   22.570601 H          1 MOL1         0.1025
      11    C3      19.496212   19.770036   22.630967 C.3        1 MOL1        -0.1243
      12    H8      19.546420   20.133153   23.667080 H          1 MOL1         0.1025
      13    H9      18.538612   19.239236   22.542040 H          1 MOL1         0.1025
      14    C4      19.510129   20.982927   21.672583 C.3        1 MOL1        -0.2258
      15    H10     20.458390   21.531359   21.743937 H          1 MOL1         0.1036
      16    H11     18.700435   21.680626   21.922743 H          1 MOL1         0.1036
      17    H12     19.370491   20.674654   20.628832 H          1 MOL1         0.1036
@<TRIPOS>BOND
    1     1     2    1
    2     1     3    1
    3     1     4    1
    4     1     5    1
    5     5     6    1
    6     5     7    1
    7     5     8    1
    8     8     9    1
    9     8    10    1
   10     8    11    1
   11    11    12    1
   12    11    13    1
   13    11    14    1
   14    14    15    1
   15    14    16    1
   16    14    17    1
@<TRIPOS>SUBSTRUCTURE
       1 MOL1            1 RESIDUE      1      MOL     
@<SCITEGIC>MOL_PROPERTY
VConf Rank
SciTegic.value.IntegerValue
113

@<SCITEGIC>MOL_PROPERTY
Conf_Id
SciTegic.value.IntegerValue
1

@<SCITEGIC>MOL_PROPERTY
Delta U+W
SciTegic.value.DoubleValue
0.685

@<SCITEGIC>MOL_PROPERTY
U+W
SciTegic.value.DoubleValue
-15.179

@<SCITEGIC>MOL_PROPERTY
Grad RMS
SciTegic.value.DoubleValue
0.000000

@<SCITEGIC>MOL_PROPERTY
U
SciTegic.value.DoubleValue
45.697

@<SCITEGIC>MOL_PROPERTY
W
SciTegic.value.DoubleValue
-60.876

@<SCITEGIC>MOL_PROPERTY
W(PB)
SciTegic.value.DoubleValue
-62.586

@<SCITEGIC>MOL_PROPERTY
W(SA)
SciTegic.value.DoubleValue
1.710

@<SCITEGIC>MOL_PROPERTY
Valence
SciTegic.value.DoubleValue
1.263

@<SCITEGIC>MOL_PROPERTY
Coulomb
SciTegic.value.DoubleValue
44.179

@<SCITEGIC>MOL_PROPERTY
VdW
SciTegic.value.DoubleValue
0.255

@<SCITEGIC>MOL_PROPERTY
VdW6
SciTegic.value.DoubleValue
-3.552

@<SCITEGIC>MOL_PROPERTY
VdW12
SciTegic.value.DoubleValue
3.807

@<SCITEGIC>MOL_PROPERTY
Bond
SciTegic.value.DoubleValue
0.125

@<SCITEGIC>MOL_PROPERTY
Angle
SciTegic.value.DoubleValue
0.616

@<SCITEGIC>MOL_PROPERTY
Pdih
SciTegic.value.DoubleValue
0.521

@<SCITEGIC>MOL_PROPERTY
Idih
SciTegic.value.DoubleValue
0.000

@<SCITEGIC>MOL_PROPERTY
Tether
SciTegic.value.DoubleValue
0.000

@<TRIPOS>MOLECULE
guest-1_confgen4.mol2 : confsearch ligand conformer 114
          17          16           1
SMALL
USER_CHARGES
 
@<TRIPOS>ATOM
       1    N1      18.640133   18.664047   20.129914 N.4        1 MOL1        -0.5891
       2    H1      17.675832   18.629421   20.473864 H          1 MOL1         0.3726
       3    H2      19.080600   17.772356   20.373479 H          1 MOL1         0.3726
       4    H3      18.589974   18.703415   19.106878 H          1 MOL1         0.3726
       5    C1      19.403254   19.842661   20.702953 C.3        1 MOL1         0.0314
       6    H4      18.901074   20.756375   20.373588 H          1 MOL1         0.0999
       7    H5      20.408817   19.836716   20.274453 H          1 MOL1         0.0999
       8    C2      19.493945   19.836479   22.242971 C.3        1 MOL1        -0.1308
       9    H6      20.003271   20.753224   22.568499 H          1 MOL1         0.1025
      10    H7      18.480845   19.883832   22.663845 H          1 MOL1         0.1025
      11    C3      20.235626   18.607592   22.825469 C.3        1 MOL1        -0.1243
      12    H8      19.686807   17.686744   22.585698 H          1 MOL1         0.1025
      13    H9      20.237517   18.682538   23.921956 H          1 MOL1         0.1025
      14    C4      21.694384   18.488835   22.327756 C.3        1 MOL1        -0.2258
      15    H10     22.199919   17.644976   22.814896 H          1 MOL1         0.1036
      16    H11     22.264839   19.398255   22.557110 H          1 MOL1         0.1036
      17    H12     21.739148   18.320571   21.244413 H          1 MOL1         0.1036
@<TRIPOS>BOND
    1     1     2    1
    2     1     3    1
    3     1     4    1
    4     1     5    1
    5     5     6    1
    6     5     7    1
    7     5     8    1
    8     8     9    1
    9     8    10    1
   10     8    11    1
   11    11    12    1
   12    11    13    1
   13    11    14    1
   14    14    15    1
   15    14    16    1
   16    14    17    1
@<TRIPOS>SUBSTRUCTURE
       1 MOL1            1 RESIDUE      1      MOL     
@<SCITEGIC>MOL_PROPERTY
VConf Rank
SciTegic.value.IntegerValue
114

@<SCITEGIC>MOL_PROPERTY
Conf_Id
SciTegic.value.IntegerValue
43

@<SCITEGIC>MOL_PROPERTY
Delta U+W
SciTegic.value.DoubleValue
0.642

@<SCITEGIC>MOL_PROPERTY
U+W
SciTegic.value.DoubleValue
-15.222

@<SCITEGIC>MOL_PROPERTY
Grad RMS
SciTegic.value.DoubleValue
0.000000

@<SCITEGIC>MOL_PROPERTY
U
SciTegic.value.DoubleValue
45.697

@<SCITEGIC>MOL_PROPERTY
W
SciTegic.value.DoubleValue
-60.919

@<SCITEGIC>MOL_PROPERTY
W(PB)
SciTegic.value.DoubleValue
-62.631

@<SCITEGIC>MOL_PROPERTY
W(SA)
SciTegic.value.DoubleValue
1.712

@<SCITEGIC>MOL_PROPERTY
Valence
SciTegic.value.DoubleValue
1.262

@<SCITEGIC>MOL_PROPERTY
Coulomb
SciTegic.value.DoubleValue
44.179

@<SCITEGIC>MOL_PROPERTY
VdW
SciTegic.value.DoubleValue
0.255

@<SCITEGIC>MOL_PROPERTY
VdW6
SciTegic.value.DoubleValue
-3.552

@<SCITEGIC>MOL_PROPERTY
VdW12
SciTegic.value.DoubleValue
3.807

@<SCITEGIC>MOL_PROPERTY
Bond
SciTegic.value.DoubleValue
0.125

@<SCITEGIC>MOL_PROPERTY
Angle
SciTegic.value.DoubleValue
0.616

@<SCITEGIC>MOL_PROPERTY
Pdih
SciTegic.value.DoubleValue
0.521

@<SCITEGIC>MOL_PROPERTY
Idih
SciTegic.value.DoubleValue
0.000

@<SCITEGIC>MOL_PROPERTY
Tether
SciTegic.value.DoubleValue
0.000

@<TRIPOS>MOLECULE
guest-1_confgen4.mol2 : confsearch ligand conformer 115
          17          16           1
SMALL
USER_CHARGES
 
@<TRIPOS>ATOM
       1    N1      17.651259   18.127506   20.967733 N.4        1 MOL1        -0.5891
       2    H1      17.606436   17.390591   21.678115 H          1 MOL1         0.3726
       3    H2      17.926806   17.680670   20.087899 H          1 MOL1         0.3726
       4    H3      16.694645   18.472394   20.837925 H          1 MOL1         0.3726
       5    C1      18.602580   19.239578   21.362249 C.3        1 MOL1         0.0314
       6    H4      18.231704   19.688670   22.287608 H          1 MOL1         0.0999
       7    H5      18.576173   20.000628   20.577628 H          1 MOL1         0.0999
       8    C2      20.050045   18.756111   21.565632 C.3        1 MOL1        -0.1308
       9    H6      20.070437   17.981001   22.343308 H          1 MOL1         0.1025
      10    H7      20.413769   18.292025   20.639178 H          1 MOL1         0.1025
      11    C3      20.984972   19.918450   21.966135 C.3        1 MOL1        -0.1243
      12    H8      20.619522   20.385533   22.891665 H          1 MOL1         0.1025
      13    H9      20.962498   20.696140   21.189593 H          1 MOL1         0.1025
      14    C4      22.438799   19.440982   22.171962 C.3        1 MOL1        -0.2258
      15    H10     23.086334   20.280757   22.455731 H          1 MOL1         0.1036
      16    H11     22.844065   18.999858   21.251974 H          1 MOL1         0.1036
      17    H12     22.498363   18.686751   22.967446 H          1 MOL1         0.1036
@<TRIPOS>BOND
    1     1     2    1
    2     1     3    1
    3     1     4    1
    4     1     5    1
    5     5     6    1
    6     5     7    1
    7     5     8    1
    8     8     9    1
    9     8    10    1
   10     8    11    1
   11    11    12    1
   12    11    13    1
   13    11    14    1
   14    14    15    1
   15    14    16    1
   16    14    17    1
@<TRIPOS>SUBSTRUCTURE
       1 MOL1            1 RESIDUE      1      MOL     
@<SCITEGIC>MOL_PROPERTY
VConf Rank
SciTegic.value.IntegerValue
115

@<SCITEGIC>MOL_PROPERTY
Conf_Id
SciTegic.value.IntegerValue
7

@<SCITEGIC>MOL_PROPERTY
Delta U+W
SciTegic.value.DoubleValue
0.000

@<SCITEGIC>MOL_PROPERTY
U+W
SciTegic.value.DoubleValue
-15.865

@<SCITEGIC>MOL_PROPERTY
Grad RMS
SciTegic.value.DoubleValue
0.000000

@<SCITEGIC>MOL_PROPERTY
U
SciTegic.value.DoubleValue
44.664

@<SCITEGIC>MOL_PROPERTY
W
SciTegic.value.DoubleValue
-60.529

@<SCITEGIC>MOL_PROPERTY
W(PB)
SciTegic.value.DoubleValue
-62.309

@<SCITEGIC>MOL_PROPERTY
W(SA)
SciTegic.value.DoubleValue
1.780

@<SCITEGIC>MOL_PROPERTY
Valence
SciTegic.value.DoubleValue
0.872

@<SCITEGIC>MOL_PROPERTY
Coulomb
SciTegic.value.DoubleValue
43.648

@<SCITEGIC>MOL_PROPERTY
VdW
SciTegic.value.DoubleValue
0.144

@<SCITEGIC>MOL_PROPERTY
VdW6
SciTegic.value.DoubleValue
-2.370

@<SCITEGIC>MOL_PROPERTY
VdW12
SciTegic.value.DoubleValue
2.515

@<SCITEGIC>MOL_PROPERTY
Bond
SciTegic.value.DoubleValue
0.080

@<SCITEGIC>MOL_PROPERTY
Angle
SciTegic.value.DoubleValue
0.376

@<SCITEGIC>MOL_PROPERTY
Pdih
SciTegic.value.DoubleValue
0.416

@<SCITEGIC>MOL_PROPERTY
Idih
SciTegic.value.DoubleValue
0.000

@<SCITEGIC>MOL_PROPERTY
Tether
SciTegic.value.DoubleValue
0.000

@<TRIPOS>MOLECULE
guest-1_confgen4.mol2 : confsearch ligand conformer 116
          17          16           1
SMALL
USER_CHARGES
 
@<TRIPOS>ATOM
       1    N1      17.881999   20.002947   20.716449 N.4        1 MOL1        -0.5891
       2    H1      17.843305   21.003955   20.931235 H          1 MOL1         0.3726
       3    H2      17.228802   19.533763   21.351151 H          1 MOL1         0.3726
       4    H3      17.508171   19.888661   19.768802 H          1 MOL1         0.3726
       5    C1      19.287956   19.449967   20.838336 C.3        1 MOL1         0.0314
       6    H4      19.920430   19.972441   20.115559 H          1 MOL1         0.0999
       7    H5      19.257486   18.391891   20.565601 H          1 MOL1         0.0999
       8    C2      19.880644   19.605433   22.252022 C.3        1 MOL1        -0.1308
       9    H6      19.869686   20.667212   22.531994 H          1 MOL1         0.1025
      10    H7      19.244483   19.082081   22.978169 H          1 MOL1         0.1025
      11    C3      21.329264   19.073221   22.353293 C.3        1 MOL1        -0.1243
      12    H8      21.718358   19.286363   23.358857 H          1 MOL1         0.1025
      13    H9      21.974364   19.619195   21.650483 H          1 MOL1         0.1025
      14    C4      21.435405   17.554773   22.083097 C.3        1 MOL1        -0.2258
      15    H10     20.794670   16.985657   22.769166 H          1 MOL1         0.1036
      16    H11     22.467725   17.209730   22.225461 H          1 MOL1         0.1036
      17    H12     21.142632   17.306483   21.055125 H          1 MOL1         0.1036
@<TRIPOS>BOND
    1     1     2    1
    2     1     3    1
    3     1     4    1
    4     1     5    1
    5     5     6    1
    6     5     7    1
    7     5     8    1
    8     8     9    1
    9     8    10    1
   10     8    11    1
   11    11    12    1
   12    11    13    1
   13    11    14    1
   14    14    15    1
   15    14    16    1
   16    14    17    1
@<TRIPOS>SUBSTRUCTURE
       1 MOL1            1 RESIDUE      1      MOL     
@<SCITEGIC>MOL_PROPERTY
VConf Rank
SciTegic.value.IntegerValue
116

@<SCITEGIC>MOL_PROPERTY
Conf_Id
SciTegic.value.IntegerValue
36

@<SCITEGIC>MOL_PROPERTY
Delta U+W
SciTegic.value.DoubleValue
0.275

@<SCITEGIC>MOL_PROPERTY
U+W
SciTegic.value.DoubleValue
-15.590

@<SCITEGIC>MOL_PROPERTY
Grad RMS
SciTegic.value.DoubleValue
0.000000

@<SCITEGIC>MOL_PROPERTY
U
SciTegic.value.DoubleValue
45.174

@<SCITEGIC>MOL_PROPERTY
W
SciTegic.value.DoubleValue
-60.765

@<SCITEGIC>MOL_PROPERTY
W(PB)
SciTegic.value.DoubleValue
-62.518

@<SCITEGIC>MOL_PROPERTY
W(SA)
SciTegic.value.DoubleValue
1.754

@<SCITEGIC>MOL_PROPERTY
Valence
SciTegic.value.DoubleValue
1.161

@<SCITEGIC>MOL_PROPERTY
Coulomb
SciTegic.value.DoubleValue
43.789

@<SCITEGIC>MOL_PROPERTY
VdW
SciTegic.value.DoubleValue
0.224

@<SCITEGIC>MOL_PROPERTY
VdW6
SciTegic.value.DoubleValue
-2.897

@<SCITEGIC>MOL_PROPERTY
VdW12
SciTegic.value.DoubleValue
3.121

@<SCITEGIC>MOL_PROPERTY
Bond
SciTegic.value.DoubleValue
0.100

@<SCITEGIC>MOL_PROPERTY
Angle
SciTegic.value.DoubleValue
0.500

@<SCITEGIC>MOL_PROPERTY
Pdih
SciTegic.value.DoubleValue
0.561

@<SCITEGIC>MOL_PROPERTY
Idih
SciTegic.value.DoubleValue
0.000

@<SCITEGIC>MOL_PROPERTY
Tether
SciTegic.value.DoubleValue
0.000

@<TRIPOS>MOLECULE
guest-1_confgen4.mol2 : confsearch ligand conformer 117
          17          16           1
SMALL
USER_CHARGES
 
@<TRIPOS>ATOM
       1    N1      20.366191   17.320083   20.899807 N.4        1 MOL1        -0.5891
       2    H1      20.306061   18.028463   20.163990 H          1 MOL1         0.3726
       3    H2      19.490566   16.788747   20.878804 H          1 MOL1         0.3726
       4    H3      21.114090   16.671143   20.634579 H          1 MOL1         0.3726
       5    C1      20.615274   17.942290   22.260266 C.3        1 MOL1         0.0314
       6    H4      21.590593   18.436039   22.243934 H          1 MOL1         0.0999
       7    H5      20.663503   17.122920   22.982654 H          1 MOL1         0.0999
       8    C2      19.530114   18.944064   22.708027 C.3        1 MOL1        -0.1308
       9    H6      18.532719   18.539009   22.491551 H          1 MOL1         0.1025
      10    H7      19.587900   19.034037   23.800918 H          1 MOL1         0.1025
      11    C3      19.677962   20.364138   22.104507 C.3        1 MOL1        -0.1243
      12    H8      20.655420   20.783509   22.381500 H          1 MOL1         0.1025
      13    H9      18.924972   21.017104   22.567789 H          1 MOL1         0.1025
      14    C4      19.506703   20.427237   20.569720 C.3        1 MOL1        -0.2258
      15    H10     20.354084   19.964112   20.050936 H          1 MOL1         0.1036
      16    H11     19.455900   21.471573   20.235148 H          1 MOL1         0.1036
      17    H12     18.581145   19.930249   20.251131 H          1 MOL1         0.1036
@<TRIPOS>BOND
    1     1     2    1
    2     1     3    1
    3     1     4    1
    4     1     5    1
    5     5     6    1
    6     5     7    1
    7     5     8    1
    8     8     9    1
    9     8    10    1
   10     8    11    1
   11    11    12    1
   12    11    13    1
   13    11    14    1
   14    14    15    1
   15    14    16    1
   16    14    17    1
@<TRIPOS>SUBSTRUCTURE
       1 MOL1            1 RESIDUE      1      MOL     
@<SCITEGIC>MOL_PROPERTY
VConf Rank
SciTegic.value.IntegerValue
117

@<SCITEGIC>MOL_PROPERTY
Conf_Id
SciTegic.value.IntegerValue
19

@<SCITEGIC>MOL_PROPERTY
Delta U+W
SciTegic.value.DoubleValue
2.662

@<SCITEGIC>MOL_PROPERTY
U+W
SciTegic.value.DoubleValue
-13.203

@<SCITEGIC>MOL_PROPERTY
Grad RMS
SciTegic.value.DoubleValue
0.000000

@<SCITEGIC>MOL_PROPERTY
U
SciTegic.value.DoubleValue
47.423

@<SCITEGIC>MOL_PROPERTY
W
SciTegic.value.DoubleValue
-60.626

@<SCITEGIC>MOL_PROPERTY
W(PB)
SciTegic.value.DoubleValue
-62.328

@<SCITEGIC>MOL_PROPERTY
W(SA)
SciTegic.value.DoubleValue
1.702

@<SCITEGIC>MOL_PROPERTY
Valence
SciTegic.value.DoubleValue
2.414

@<SCITEGIC>MOL_PROPERTY
Coulomb
SciTegic.value.DoubleValue
44.831

@<SCITEGIC>MOL_PROPERTY
VdW
SciTegic.value.DoubleValue
0.178

@<SCITEGIC>MOL_PROPERTY
VdW6
SciTegic.value.DoubleValue
-3.743

@<SCITEGIC>MOL_PROPERTY
VdW12
SciTegic.value.DoubleValue
3.921

@<SCITEGIC>MOL_PROPERTY
Bond
SciTegic.value.DoubleValue
0.138

@<SCITEGIC>MOL_PROPERTY
Angle
SciTegic.value.DoubleValue
0.941

@<SCITEGIC>MOL_PROPERTY
Pdih
SciTegic.value.DoubleValue
1.335

@<SCITEGIC>MOL_PROPERTY
Idih
SciTegic.value.DoubleValue
0.000

@<SCITEGIC>MOL_PROPERTY
Tether
SciTegic.value.DoubleValue
0.000

@<TRIPOS>MOLECULE
guest-1_confgen4.mol2 : confsearch ligand conformer 118
          17          16           1
SMALL
USER_CHARGES
 
@<TRIPOS>ATOM
       1    N1      18.026695   19.130994   21.484187 N.4        1 MOL1        -0.5891
       2    H1      17.151904   18.597284   21.457378 H          1 MOL1         0.3726
       3    H2      17.795207   20.094095   21.222789 H          1 MOL1         0.3726
       4    H3      18.338852   19.150337   22.458367 H          1 MOL1         0.3726
       5    C1      19.078908   18.535928   20.568335 C.3        1 MOL1         0.0314
       6    H4      18.668529   18.554815   19.555038 H          1 MOL1         0.0999
       7    H5      19.235043   17.491165   20.850106 H          1 MOL1         0.0999
       8    C2      20.427109   19.286830   20.578822 C.3        1 MOL1        -0.1308
       9    H6      20.957154   19.036370   19.650292 H          1 MOL1         0.1025
      10    H7      20.253721   20.370541   20.543639 H          1 MOL1         0.1025
      11    C3      21.353763   18.927413   21.768290 C.3        1 MOL1        -0.1243
      12    H8      22.318170   19.433535   21.620813 H          1 MOL1         0.1025
      13    H9      21.570965   17.850068   21.755156 H          1 MOL1         0.1025
      14    C4      20.796942   19.323652   23.154589 C.3        1 MOL1        -0.2258
      15    H10     20.480932   20.374841   23.171644 H          1 MOL1         0.1036
      16    H11     21.568173   19.195380   23.925242 H          1 MOL1         0.1036
      17    H12     19.947145   18.693599   23.441917 H          1 MOL1         0.1036
@<TRIPOS>BOND
    1     1     2    1
    2     1     3    1
    3     1     4    1
    4     1     5    1
    5     5     6    1
    6     5     7    1
    7     5     8    1
    8     8     9    1
    9     8    10    1
   10     8    11    1
   11    11    12    1
   12    11    13    1
   13    11    14    1
   14    14    15    1
   15    14    16    1
   16    14    17    1
@<TRIPOS>SUBSTRUCTURE
       1 MOL1            1 RESIDUE      1      MOL     
@<SCITEGIC>MOL_PROPERTY
VConf Rank
SciTegic.value.IntegerValue
118

@<SCITEGIC>MOL_PROPERTY
Conf_Id
SciTegic.value.IntegerValue
44

@<SCITEGIC>MOL_PROPERTY
Delta U+W
SciTegic.value.DoubleValue
2.712

@<SCITEGIC>MOL_PROPERTY
U+W
SciTegic.value.DoubleValue
-13.153

@<SCITEGIC>MOL_PROPERTY
Grad RMS
SciTegic.value.DoubleValue
0.000000

@<SCITEGIC>MOL_PROPERTY
U
SciTegic.value.DoubleValue
47.423

@<SCITEGIC>MOL_PROPERTY
W
SciTegic.value.DoubleValue
-60.576

@<SCITEGIC>MOL_PROPERTY
W(PB)
SciTegic.value.DoubleValue
-62.262

@<SCITEGIC>MOL_PROPERTY
W(SA)
SciTegic.value.DoubleValue
1.687

@<SCITEGIC>MOL_PROPERTY
Valence
SciTegic.value.DoubleValue
2.414

@<SCITEGIC>MOL_PROPERTY
Coulomb
SciTegic.value.DoubleValue
44.831

@<SCITEGIC>MOL_PROPERTY
VdW
SciTegic.value.DoubleValue
0.178

@<SCITEGIC>MOL_PROPERTY
VdW6
SciTegic.value.DoubleValue
-3.743

@<SCITEGIC>MOL_PROPERTY
VdW12
SciTegic.value.DoubleValue
3.922

@<SCITEGIC>MOL_PROPERTY
Bond
SciTegic.value.DoubleValue
0.138

@<SCITEGIC>MOL_PROPERTY
Angle
SciTegic.value.DoubleValue
0.941

@<SCITEGIC>MOL_PROPERTY
Pdih
SciTegic.value.DoubleValue
1.335

@<SCITEGIC>MOL_PROPERTY
Idih
SciTegic.value.DoubleValue
0.000

@<SCITEGIC>MOL_PROPERTY
Tether
SciTegic.value.DoubleValue
0.000

@<TRIPOS>MOLECULE
guest-1_confgen4.mol2 : confsearch ligand conformer 119
          17          16           1
SMALL
USER_CHARGES
 
@<TRIPOS>ATOM
       1    N1      18.073146   19.772599   21.631410 N.4        1 MOL1        -0.5891
       2    H1      18.011269   18.818400   21.265185 H          1 MOL1         0.3726
       3    H2      17.907910   20.409598   20.846357 H          1 MOL1         0.3726
       4    H3      17.291323   19.894280   22.283035 H          1 MOL1         0.3726
       5    C1      19.409670   20.032487   22.299257 C.3        1 MOL1         0.0314
       6    H4      19.508207   19.342617   23.141381 H          1 MOL1         0.0999
       7    H5      19.390651   21.050751   22.697144 H          1 MOL1         0.0999
       8    C2      20.618946   19.875944   21.354235 C.3        1 MOL1        -0.1308
       9    H6      20.531506   20.600687   20.533960 H          1 MOL1         0.1025
      10    H7      21.531042   20.144623   21.903505 H          1 MOL1         0.1025
      11    C3      20.779198   18.451589   20.766794 C.3        1 MOL1        -0.1243
      12    H8      21.652162   18.440408   20.099176 H          1 MOL1         0.1025
      13    H9      19.913601   18.202943   20.137849 H          1 MOL1         0.1025
      14    C4      20.963114   17.366180   21.852087 C.3        1 MOL1        -0.2258
      15    H10     21.824387   17.592103   22.494142 H          1 MOL1         0.1036
      16    H11     21.138009   16.385772   21.390373 H          1 MOL1         0.1036
      17    H12     20.074499   17.277781   22.489658 H          1 MOL1         0.1036
@<TRIPOS>BOND
    1     1     2    1
    2     1     3    1
    3     1     4    1
    4     1     5    1
    5     5     6    1
    6     5     7    1
    7     5     8    1
    8     8     9    1
    9     8    10    1
   10     8    11    1
   11    11    12    1
   12    11    13    1
   13    11    14    1
   14    14    15    1
   15    14    16    1
   16    14    17    1
@<TRIPOS>SUBSTRUCTURE
       1 MOL1            1 RESIDUE      1      MOL     
@<SCITEGIC>MOL_PROPERTY
VConf Rank
SciTegic.value.IntegerValue
119

@<SCITEGIC>MOL_PROPERTY
Conf_Id
SciTegic.value.IntegerValue
1

@<SCITEGIC>MOL_PROPERTY
Delta U+W
SciTegic.value.DoubleValue
0.685

@<SCITEGIC>MOL_PROPERTY
U+W
SciTegic.value.DoubleValue
-15.179

@<SCITEGIC>MOL_PROPERTY
Grad RMS
SciTegic.value.DoubleValue
0.000000

@<SCITEGIC>MOL_PROPERTY
U
SciTegic.value.DoubleValue
45.697

@<SCITEGIC>MOL_PROPERTY
W
SciTegic.value.DoubleValue
-60.876

@<SCITEGIC>MOL_PROPERTY
W(PB)
SciTegic.value.DoubleValue
-62.586

@<SCITEGIC>MOL_PROPERTY
W(SA)
SciTegic.value.DoubleValue
1.710

@<SCITEGIC>MOL_PROPERTY
Valence
SciTegic.value.DoubleValue
1.263

@<SCITEGIC>MOL_PROPERTY
Coulomb
SciTegic.value.DoubleValue
44.179

@<SCITEGIC>MOL_PROPERTY
VdW
SciTegic.value.DoubleValue
0.255

@<SCITEGIC>MOL_PROPERTY
VdW6
SciTegic.value.DoubleValue
-3.552

@<SCITEGIC>MOL_PROPERTY
VdW12
SciTegic.value.DoubleValue
3.807

@<SCITEGIC>MOL_PROPERTY
Bond
SciTegic.value.DoubleValue
0.125

@<SCITEGIC>MOL_PROPERTY
Angle
SciTegic.value.DoubleValue
0.616

@<SCITEGIC>MOL_PROPERTY
Pdih
SciTegic.value.DoubleValue
0.521

@<SCITEGIC>MOL_PROPERTY
Idih
SciTegic.value.DoubleValue
0.000

@<SCITEGIC>MOL_PROPERTY
Tether
SciTegic.value.DoubleValue
0.000

@<TRIPOS>MOLECULE
guest-1_confgen4.mol2 : confsearch ligand conformer 120
          17          16           1
SMALL
USER_CHARGES
 
@<TRIPOS>ATOM
       1    N1      19.995676   18.170317   23.388595 N.4        1 MOL1        -0.5891
       2    H1      19.816484   17.163461   23.329348 H          1 MOL1         0.3726
       3    H2      19.090490   18.643595   23.317231 H          1 MOL1         0.3726
       4    H3      20.355701   18.353601   24.330644 H          1 MOL1         0.3726
       5    C1      20.960050   18.637477   22.315468 C.3        1 MOL1         0.0314
       6    H4      21.910948   18.121838   22.474985 H          1 MOL1         0.0999
       7    H5      21.129224   19.708456   22.453993 H          1 MOL1         0.0999
       8    C2      20.468970   18.370042   20.877678 C.3        1 MOL1        -0.1308
       9    H6      21.253965   18.679801   20.175087 H          1 MOL1         0.1025
      10    H7      20.341159   17.288711   20.735773 H          1 MOL1         0.1025
      11    C3      19.148352   19.095335   20.517849 C.3        1 MOL1        -0.1243
      12    H8      18.330729   18.728097   21.152895 H          1 MOL1         0.1025
      13    H9      18.871470   18.835116   19.486575 H          1 MOL1         0.1025
      14    C4      19.250098   20.633224   20.637620 C.3        1 MOL1        -0.2258
      15    H10     18.315447   21.107502   20.311342 H          1 MOL1         0.1036
      16    H11     20.061034   21.025100   20.010020 H          1 MOL1         0.1036
      17    H12     19.436190   20.946364   21.672638 H          1 MOL1         0.1036
@<TRIPOS>BOND
    1     1     2    1
    2     1     3    1
    3     1     4    1
    4     1     5    1
    5     5     6    1
    6     5     7    1
    7     5     8    1
    8     8     9    1
    9     8    10    1
   10     8    11    1
   11    11    12    1
   12    11    13    1
   13    11    14    1
   14    14    15    1
   15    14    16    1
   16    14    17    1
@<TRIPOS>SUBSTRUCTURE
       1 MOL1            1 RESIDUE      1      MOL     
@<SCITEGIC>MOL_PROPERTY
VConf Rank
SciTegic.value.IntegerValue
120

@<SCITEGIC>MOL_PROPERTY
Conf_Id
SciTegic.value.IntegerValue
43

@<SCITEGIC>MOL_PROPERTY
Delta U+W
SciTegic.value.DoubleValue
0.642

@<SCITEGIC>MOL_PROPERTY
U+W
SciTegic.value.DoubleValue
-15.222

@<SCITEGIC>MOL_PROPERTY
Grad RMS
SciTegic.value.DoubleValue
0.000000

@<SCITEGIC>MOL_PROPERTY
U
SciTegic.value.DoubleValue
45.697

@<SCITEGIC>MOL_PROPERTY
W
SciTegic.value.DoubleValue
-60.919

@<SCITEGIC>MOL_PROPERTY
W(PB)
SciTegic.value.DoubleValue
-62.631

@<SCITEGIC>MOL_PROPERTY
W(SA)
SciTegic.value.DoubleValue
1.712

@<SCITEGIC>MOL_PROPERTY
Valence
SciTegic.value.DoubleValue
1.262

@<SCITEGIC>MOL_PROPERTY
Coulomb
SciTegic.value.DoubleValue
44.179

@<SCITEGIC>MOL_PROPERTY
VdW
SciTegic.value.DoubleValue
0.255

@<SCITEGIC>MOL_PROPERTY
VdW6
SciTegic.value.DoubleValue
-3.552

@<SCITEGIC>MOL_PROPERTY
VdW12
SciTegic.value.DoubleValue
3.807

@<SCITEGIC>MOL_PROPERTY
Bond
SciTegic.value.DoubleValue
0.125

@<SCITEGIC>MOL_PROPERTY
Angle
SciTegic.value.DoubleValue
0.616

@<SCITEGIC>MOL_PROPERTY
Pdih
SciTegic.value.DoubleValue
0.521

@<SCITEGIC>MOL_PROPERTY
Idih
SciTegic.value.DoubleValue
0.000

@<SCITEGIC>MOL_PROPERTY
Tether
SciTegic.value.DoubleValue
0.000

@<TRIPOS>MOLECULE
guest-1_confgen4.mol2 : confsearch ligand conformer 121
          17          16           1
SMALL
USER_CHARGES
 
@<TRIPOS>ATOM
       1    N1      19.585804   17.207112   19.866497 N.4        1 MOL1        -0.5891
       2    H1      19.452791   16.433537   20.524969 H          1 MOL1         0.3726
       3    H2      20.550370   17.149609   19.525904 H          1 MOL1         0.3726
       4    H3      18.976490   17.020647   19.063455 H          1 MOL1         0.3726
       5    C1      19.286652   18.550763   20.500899 C.3        1 MOL1         0.0314
       6    H4      18.238186   18.551664   20.811125 H          1 MOL1         0.0999
       7    H5      19.418396   19.321677   19.736791 H          1 MOL1         0.0999
       8    C2      20.184756   18.863470   21.711636 C.3        1 MOL1        -0.1308
       9    H6      20.061403   18.079080   22.470258 H          1 MOL1         0.1025
      10    H7      21.237531   18.846591   21.399594 H          1 MOL1         0.1025
      11    C3      19.847490   20.239210   22.327356 C.3        1 MOL1        -0.1243
      12    H8      18.792893   20.257860   22.636878 H          1 MOL1         0.1025
      13    H9      19.967653   21.024441   21.567554 H          1 MOL1         0.1025
      14    C4      20.744443   20.559744   23.542546 C.3        1 MOL1        -0.2258
      15    H10     20.489216   21.540228   23.965109 H          1 MOL1         0.1036
      16    H11     21.804164   20.582343   23.256736 H          1 MOL1         0.1036
      17    H12     20.620169   19.809669   24.334474 H          1 MOL1         0.1036
@<TRIPOS>BOND
    1     1     2    1
    2     1     3    1
    3     1     4    1
    4     1     5    1
    5     5     6    1
    6     5     7    1
    7     5     8    1
    8     8     9    1
    9     8    10    1
   10     8    11    1
   11    11    12    1
   12    11    13    1
   13    11    14    1
   14    14    15    1
   15    14    16    1
   16    14    17    1
@<TRIPOS>SUBSTRUCTURE
       1 MOL1            1 RESIDUE      1      MOL     
@<SCITEGIC>MOL_PROPERTY
VConf Rank
SciTegic.value.IntegerValue
121

@<SCITEGIC>MOL_PROPERTY
Conf_Id
SciTegic.value.IntegerValue
7

@<SCITEGIC>MOL_PROPERTY
Delta U+W
SciTegic.value.DoubleValue
0.000

@<SCITEGIC>MOL_PROPERTY
U+W
SciTegic.value.DoubleValue
-15.865

@<SCITEGIC>MOL_PROPERTY
Grad RMS
SciTegic.value.DoubleValue
0.000000

@<SCITEGIC>MOL_PROPERTY
U
SciTegic.value.DoubleValue
44.664

@<SCITEGIC>MOL_PROPERTY
W
SciTegic.value.DoubleValue
-60.529

@<SCITEGIC>MOL_PROPERTY
W(PB)
SciTegic.value.DoubleValue
-62.309

@<SCITEGIC>MOL_PROPERTY
W(SA)
SciTegic.value.DoubleValue
1.780

@<SCITEGIC>MOL_PROPERTY
Valence
SciTegic.value.DoubleValue
0.872

@<SCITEGIC>MOL_PROPERTY
Coulomb
SciTegic.value.DoubleValue
43.648

@<SCITEGIC>MOL_PROPERTY
VdW
SciTegic.value.DoubleValue
0.144

@<SCITEGIC>MOL_PROPERTY
VdW6
SciTegic.value.DoubleValue
-2.370

@<SCITEGIC>MOL_PROPERTY
VdW12
SciTegic.value.DoubleValue
2.515

@<SCITEGIC>MOL_PROPERTY
Bond
SciTegic.value.DoubleValue
0.080

@<SCITEGIC>MOL_PROPERTY
Angle
SciTegic.value.DoubleValue
0.376

@<SCITEGIC>MOL_PROPERTY
Pdih
SciTegic.value.DoubleValue
0.416

@<SCITEGIC>MOL_PROPERTY
Idih
SciTegic.value.DoubleValue
0.000

@<SCITEGIC>MOL_PROPERTY
Tether
SciTegic.value.DoubleValue
0.000

@<TRIPOS>MOLECULE
guest-1_confgen4.mol2 : confsearch ligand conformer 122
          17          16           1
SMALL
USER_CHARGES
 
@<TRIPOS>ATOM
       1    N1      18.096255   20.626307   21.979206 N.4        1 MOL1        -0.5891
       2    H1      18.141261   21.364592   21.270294 H          1 MOL1         0.3726
       3    H2      18.425158   21.034313   22.859547 H          1 MOL1         0.3726
       4    H3      17.104804   20.400593   22.109287 H          1 MOL1         0.3726
       5    C1      18.904491   19.407277   21.581617 C.3        1 MOL1         0.0314
       6    H4      18.481569   19.008748   20.655485 H          1 MOL1         0.0999
       7    H5      18.784506   18.654614   22.365160 H          1 MOL1         0.0999
       8    C2      20.401128   19.711569   21.378041 C.3        1 MOL1        -0.1308
       9    H6      20.508488   20.496915   20.618052 H          1 MOL1         0.1025
      10    H7      20.825494   20.113409   22.307733 H          1 MOL1         0.1025
      11    C3      21.207584   18.468578   20.934634 C.3        1 MOL1        -0.1243
      12    H8      22.244510   18.770157   20.730148 H          1 MOL1         0.1025
      13    H9      20.804987   18.084777   19.986587 H          1 MOL1         0.1025
      14    C4      21.209782   17.340921   21.992151 C.3        1 MOL1        -0.2258
      15    H10     21.602473   17.700380   22.952208 H          1 MOL1         0.1036
      16    H11     21.842231   16.506118   21.663336 H          1 MOL1         0.1036
      17    H12     20.200659   16.944505   22.161313 H          1 MOL1         0.1036
@<TRIPOS>BOND
    1     1     2    1
    2     1     3    1
    3     1     4    1
    4     1     5    1
    5     5     6    1
    6     5     7    1
    7     5     8    1
    8     8     9    1
    9     8    10    1
   10     8    11    1
   11    11    12    1
   12    11    13    1
   13    11    14    1
   14    14    15    1
   15    14    16    1
   16    14    17    1
@<TRIPOS>SUBSTRUCTURE
       1 MOL1            1 RESIDUE      1      MOL     
@<SCITEGIC>MOL_PROPERTY
VConf Rank
SciTegic.value.IntegerValue
122

@<SCITEGIC>MOL_PROPERTY
Conf_Id
SciTegic.value.IntegerValue
36

@<SCITEGIC>MOL_PROPERTY
Delta U+W
SciTegic.value.DoubleValue
0.275

@<SCITEGIC>MOL_PROPERTY
U+W
SciTegic.value.DoubleValue
-15.590

@<SCITEGIC>MOL_PROPERTY
Grad RMS
SciTegic.value.DoubleValue
0.000000

@<SCITEGIC>MOL_PROPERTY
U
SciTegic.value.DoubleValue
45.174

@<SCITEGIC>MOL_PROPERTY
W
SciTegic.value.DoubleValue
-60.765

@<SCITEGIC>MOL_PROPERTY
W(PB)
SciTegic.value.DoubleValue
-62.518

@<SCITEGIC>MOL_PROPERTY
W(SA)
SciTegic.value.DoubleValue
1.754

@<SCITEGIC>MOL_PROPERTY
Valence
SciTegic.value.DoubleValue
1.161

@<SCITEGIC>MOL_PROPERTY
Coulomb
SciTegic.value.DoubleValue
43.789

@<SCITEGIC>MOL_PROPERTY
VdW
SciTegic.value.DoubleValue
0.224

@<SCITEGIC>MOL_PROPERTY
VdW6
SciTegic.value.DoubleValue
-2.897

@<SCITEGIC>MOL_PROPERTY
VdW12
SciTegic.value.DoubleValue
3.121

@<SCITEGIC>MOL_PROPERTY
Bond
SciTegic.value.DoubleValue
0.100

@<SCITEGIC>MOL_PROPERTY
Angle
SciTegic.value.DoubleValue
0.500

@<SCITEGIC>MOL_PROPERTY
Pdih
SciTegic.value.DoubleValue
0.561

@<SCITEGIC>MOL_PROPERTY
Idih
SciTegic.value.DoubleValue
0.000

@<SCITEGIC>MOL_PROPERTY
Tether
SciTegic.value.DoubleValue
0.000

@<TRIPOS>MOLECULE
guest-1_confgen4.mol2 : confsearch ligand conformer 123
          17          16           1
SMALL
USER_CHARGES
 
@<TRIPOS>ATOM
       1    N1      20.376650   17.841439   20.205081 N.4        1 MOL1        -0.5891
       2    H1      20.784374   17.523846   21.088110 H          1 MOL1         0.3726
       3    H2      21.122099   18.307895   19.679530 H          1 MOL1         0.3726
       4    H3      20.117090   17.004351   19.673352 H          1 MOL1         0.3726
       5    C1      19.188889   18.756906   20.431298 C.3        1 MOL1         0.0314
       6    H4      18.401714   18.188179   20.933501 H          1 MOL1         0.0999
       7    H5      18.817869   19.048983   19.445107 H          1 MOL1         0.0999
       8    C2      19.513557   20.028547   21.243169 C.3        1 MOL1        -0.1308
       9    H6      20.455316   20.469265   20.890200 H          1 MOL1         0.1025
      10    H7      18.734079   20.771436   21.027819 H          1 MOL1         0.1025
      11    C3      19.559193   19.816992   22.778052 C.3        1 MOL1        -0.1243
      12    H8      18.589572   19.435233   23.127504 H          1 MOL1         0.1025
      13    H9      19.690987   20.796638   23.258587 H          1 MOL1         0.1025
      14    C4      20.687032   18.876605   23.260269 C.3        1 MOL1        -0.2258
      15    H10     20.490169   17.835346   22.979733 H          1 MOL1         0.1036
      16    H11     20.765033   18.906088   24.354894 H          1 MOL1         0.1036
      17    H12     21.659574   19.176969   22.849055 H          1 MOL1         0.1036
@<TRIPOS>BOND
    1     1     2    1
    2     1     3    1
    3     1     4    1
    4     1     5    1
    5     5     6    1
    6     5     7    1
    7     5     8    1
    8     8     9    1
    9     8    10    1
   10     8    11    1
   11    11    12    1
   12    11    13    1
   13    11    14    1
   14    14    15    1
   15    14    16    1
   16    14    17    1
@<TRIPOS>SUBSTRUCTURE
       1 MOL1            1 RESIDUE      1      MOL     
@<SCITEGIC>MOL_PROPERTY
VConf Rank
SciTegic.value.IntegerValue
123

@<SCITEGIC>MOL_PROPERTY
Conf_Id
SciTegic.value.IntegerValue
19

@<SCITEGIC>MOL_PROPERTY
Delta U+W
SciTegic.value.DoubleValue
2.662

@<SCITEGIC>MOL_PROPERTY
U+W
SciTegic.value.DoubleValue
-13.203

@<SCITEGIC>MOL_PROPERTY
Grad RMS
SciTegic.value.DoubleValue
0.000000

@<SCITEGIC>MOL_PROPERTY
U
SciTegic.value.DoubleValue
47.423

@<SCITEGIC>MOL_PROPERTY
W
SciTegic.value.DoubleValue
-60.626

@<SCITEGIC>MOL_PROPERTY
W(PB)
SciTegic.value.DoubleValue
-62.328

@<SCITEGIC>MOL_PROPERTY
W(SA)
SciTegic.value.DoubleValue
1.702

@<SCITEGIC>MOL_PROPERTY
Valence
SciTegic.value.DoubleValue
2.414

@<SCITEGIC>MOL_PROPERTY
Coulomb
SciTegic.value.DoubleValue
44.831

@<SCITEGIC>MOL_PROPERTY
VdW
SciTegic.value.DoubleValue
0.178

@<SCITEGIC>MOL_PROPERTY
VdW6
SciTegic.value.DoubleValue
-3.743

@<SCITEGIC>MOL_PROPERTY
VdW12
SciTegic.value.DoubleValue
3.921

@<SCITEGIC>MOL_PROPERTY
Bond
SciTegic.value.DoubleValue
0.138

@<SCITEGIC>MOL_PROPERTY
Angle
SciTegic.value.DoubleValue
0.941

@<SCITEGIC>MOL_PROPERTY
Pdih
SciTegic.value.DoubleValue
1.335

@<SCITEGIC>MOL_PROPERTY
Idih
SciTegic.value.DoubleValue
0.000

@<SCITEGIC>MOL_PROPERTY
Tether
SciTegic.value.DoubleValue
0.000

@<TRIPOS>MOLECULE
guest-1_confgen4.mol2 : confsearch ligand conformer 124
          17          16           1
SMALL
USER_CHARGES
 
@<TRIPOS>ATOM
       1    N1      20.833564   18.315167   20.189826 N.4        1 MOL1        -0.5891
       2    H1      21.711986   17.882383   19.886679 H          1 MOL1         0.3726
       3    H2      20.301954   18.533740   19.341829 H          1 MOL1         0.3726
       4    H3      20.306159   17.602324   20.700258 H          1 MOL1         0.3726
       5    C1      21.075721   19.549582   21.036950 C.3        1 MOL1         0.0314
       6    H4      21.638694   20.255343   20.420105 H          1 MOL1         0.0999
       7    H5      21.702491   19.270214   21.888075 H          1 MOL1         0.0999
       8    C2      19.788485   20.236690   21.539462 C.3        1 MOL1        -0.1308
       9    H6      20.040091   21.275242   21.792346 H          1 MOL1         0.1025
      10    H7      19.051953   20.294543   20.727118 H          1 MOL1         0.1025
      11    C3      19.157246   19.580337   22.793831 C.3        1 MOL1        -0.1243
      12    H8      18.316145   20.205416   23.125217 H          1 MOL1         0.1025
      13    H9      19.883395   19.585932   23.618876 H          1 MOL1         0.1025
      14    C4      18.642231   18.140233   22.570810 C.3        1 MOL1        -0.2258
      15    H10     17.986370   18.082995   21.692333 H          1 MOL1         0.1036
      16    H11     18.063295   17.804162   23.440894 H          1 MOL1         0.1036
      17    H12     19.469430   17.432542   22.441994 H          1 MOL1         0.1036
@<TRIPOS>BOND
    1     1     2    1
    2     1     3    1
    3     1     4    1
    4     1     5    1
    5     5     6    1
    6     5     7    1
    7     5     8    1
    8     8     9    1
    9     8    10    1
   10     8    11    1
   11    11    12    1
   12    11    13    1
   13    11    14    1
   14    14    15    1
   15    14    16    1
   16    14    17    1
@<TRIPOS>SUBSTRUCTURE
       1 MOL1            1 RESIDUE      1      MOL     
@<SCITEGIC>MOL_PROPERTY
VConf Rank
SciTegic.value.IntegerValue
124

@<SCITEGIC>MOL_PROPERTY
Conf_Id
SciTegic.value.IntegerValue
44

@<SCITEGIC>MOL_PROPERTY
Delta U+W
SciTegic.value.DoubleValue
2.712

@<SCITEGIC>MOL_PROPERTY
U+W
SciTegic.value.DoubleValue
-13.153

@<SCITEGIC>MOL_PROPERTY
Grad RMS
SciTegic.value.DoubleValue
0.000000

@<SCITEGIC>MOL_PROPERTY
U
SciTegic.value.DoubleValue
47.423

@<SCITEGIC>MOL_PROPERTY
W
SciTegic.value.DoubleValue
-60.576

@<SCITEGIC>MOL_PROPERTY
W(PB)
SciTegic.value.DoubleValue
-62.262

@<SCITEGIC>MOL_PROPERTY
W(SA)
SciTegic.value.DoubleValue
1.687

@<SCITEGIC>MOL_PROPERTY
Valence
SciTegic.value.DoubleValue
2.414

@<SCITEGIC>MOL_PROPERTY
Coulomb
SciTegic.value.DoubleValue
44.831

@<SCITEGIC>MOL_PROPERTY
VdW
SciTegic.value.DoubleValue
0.178

@<SCITEGIC>MOL_PROPERTY
VdW6
SciTegic.value.DoubleValue
-3.743

@<SCITEGIC>MOL_PROPERTY
VdW12
SciTegic.value.DoubleValue
3.922

@<SCITEGIC>MOL_PROPERTY
Bond
SciTegic.value.DoubleValue
0.138

@<SCITEGIC>MOL_PROPERTY
Angle
SciTegic.value.DoubleValue
0.941

@<SCITEGIC>MOL_PROPERTY
Pdih
SciTegic.value.DoubleValue
1.335

@<SCITEGIC>MOL_PROPERTY
Idih
SciTegic.value.DoubleValue
0.000

@<SCITEGIC>MOL_PROPERTY
Tether
SciTegic.value.DoubleValue
0.000

@<TRIPOS>MOLECULE
guest-1_confgen4.mol2 : confsearch ligand conformer 125
          17          16           1
SMALL
USER_CHARGES
 
@<TRIPOS>ATOM
       1    N1      18.880180   19.783612   20.078501 N.4        1 MOL1        -0.5891
       2    H1      19.832791   20.151000   20.001007 H          1 MOL1         0.3726
       3    H2      18.280079   20.558462   20.376602 H          1 MOL1         0.3726
       4    H3      18.582130   19.523081   19.133008 H          1 MOL1         0.3726
       5    C1      18.806758   18.610217   21.036421 C.3        1 MOL1         0.0314
       6    H4      19.443502   17.812424   20.645410 H          1 MOL1         0.0999
       7    H5      17.775183   18.247760   21.040489 H          1 MOL1         0.0999
       8    C2      19.232299   18.955922   22.478407 C.3        1 MOL1        -0.1308
       9    H6      18.561665   19.728878   22.876574 H          1 MOL1         0.1025
      10    H7      19.085976   18.069541   23.109852 H          1 MOL1         0.1025
      11    C3      20.700218   19.434318   22.604527 C.3        1 MOL1        -0.1243
      12    H8      20.906319   19.669661   23.658112 H          1 MOL1         0.1025
      13    H9      20.840289   20.372993   22.051424 H          1 MOL1         0.1025
      14    C4      21.723519   18.383998   22.115159 C.3        1 MOL1        -0.2258
      15    H10     21.604138   17.435500   22.654759 H          1 MOL1         0.1036
      16    H11     22.748900   18.737911   22.283407 H          1 MOL1         0.1036
      17    H12     21.614697   18.183483   21.041893 H          1 MOL1         0.1036
@<TRIPOS>BOND
    1     1     2    1
    2     1     3    1
    3     1     4    1
    4     1     5    1
    5     5     6    1
    6     5     7    1
    7     5     8    1
    8     8     9    1
    9     8    10    1
   10     8    11    1
   11    11    12    1
   12    11    13    1
   13    11    14    1
   14    14    15    1
   15    14    16    1
   16    14    17    1
@<TRIPOS>SUBSTRUCTURE
       1 MOL1            1 RESIDUE      1      MOL     
@<SCITEGIC>MOL_PROPERTY
VConf Rank
SciTegic.value.IntegerValue
125

@<SCITEGIC>MOL_PROPERTY
Conf_Id
SciTegic.value.IntegerValue
1

@<SCITEGIC>MOL_PROPERTY
Delta U+W
SciTegic.value.DoubleValue
0.685

@<SCITEGIC>MOL_PROPERTY
U+W
SciTegic.value.DoubleValue
-15.179

@<SCITEGIC>MOL_PROPERTY
Grad RMS
SciTegic.value.DoubleValue
0.000000

@<SCITEGIC>MOL_PROPERTY
U
SciTegic.value.DoubleValue
45.697

@<SCITEGIC>MOL_PROPERTY
W
SciTegic.value.DoubleValue
-60.876

@<SCITEGIC>MOL_PROPERTY
W(PB)
SciTegic.value.DoubleValue
-62.586

@<SCITEGIC>MOL_PROPERTY
W(SA)
SciTegic.value.DoubleValue
1.710

@<SCITEGIC>MOL_PROPERTY
Valence
SciTegic.value.DoubleValue
1.263

@<SCITEGIC>MOL_PROPERTY
Coulomb
SciTegic.value.DoubleValue
44.179

@<SCITEGIC>MOL_PROPERTY
VdW
SciTegic.value.DoubleValue
0.255

@<SCITEGIC>MOL_PROPERTY
VdW6
SciTegic.value.DoubleValue
-3.552

@<SCITEGIC>MOL_PROPERTY
VdW12
SciTegic.value.DoubleValue
3.807

@<SCITEGIC>MOL_PROPERTY
Bond
SciTegic.value.DoubleValue
0.125

@<SCITEGIC>MOL_PROPERTY
Angle
SciTegic.value.DoubleValue
0.616

@<SCITEGIC>MOL_PROPERTY
Pdih
SciTegic.value.DoubleValue
0.521

@<SCITEGIC>MOL_PROPERTY
Idih
SciTegic.value.DoubleValue
0.000

@<SCITEGIC>MOL_PROPERTY
Tether
SciTegic.value.DoubleValue
0.000

@<TRIPOS>MOLECULE
guest-1_confgen4.mol2 : confsearch ligand conformer 126
          17          16           1
SMALL
USER_CHARGES
 
@<TRIPOS>ATOM
       1    N1      21.186713   20.242228   22.540209 N.4        1 MOL1        -0.5891
       2    H1      22.160147   20.032114   22.300090 H          1 MOL1         0.3726
       3    H2      20.883489   19.537858   23.218712 H          1 MOL1         0.3726
       4    H3      21.188206   21.144705   23.026213 H          1 MOL1         0.3726
       5    C1      20.293519   20.263027   21.314799 C.3        1 MOL1         0.0314
       6    H4      20.651207   21.058606   20.655517 H          1 MOL1         0.0999
       7    H5      19.281293   20.520855   21.636867 H          1 MOL1         0.0999
       8    C2      20.268953   18.929594   20.539381 C.3        1 MOL1        -0.1308
       9    H6      19.652559   19.057782   19.639698 H          1 MOL1         0.1025
      10    H7      21.282630   18.699947   20.185167 H          1 MOL1         0.1025
      11    C3      19.728119   17.732908   21.360964 C.3        1 MOL1        -0.1243
      12    H8      20.387743   17.533299   22.216363 H          1 MOL1         0.1025
      13    H9      19.761757   16.830091   20.735108 H          1 MOL1         0.1025
      14    C4      18.280001   17.945246   21.858623 C.3        1 MOL1        -0.2258
      15    H10     17.915988   17.049162   22.377753 H          1 MOL1         0.1036
      16    H11     17.600101   18.145742   21.020408 H          1 MOL1         0.1036
      17    H12     18.213561   18.784877   22.561869 H          1 MOL1         0.1036
@<TRIPOS>BOND
    1     1     2    1
    2     1     3    1
    3     1     4    1
    4     1     5    1
    5     5     6    1
    6     5     7    1
    7     5     8    1
    8     8     9    1
    9     8    10    1
   10     8    11    1
   11    11    12    1
   12    11    13    1
   13    11    14    1
   14    14    15    1
   15    14    16    1
   16    14    17    1
@<TRIPOS>SUBSTRUCTURE
       1 MOL1            1 RESIDUE      1      MOL     
@<SCITEGIC>MOL_PROPERTY
VConf Rank
SciTegic.value.IntegerValue
126

@<SCITEGIC>MOL_PROPERTY
Conf_Id
SciTegic.value.IntegerValue
43

@<SCITEGIC>MOL_PROPERTY
Delta U+W
SciTegic.value.DoubleValue
0.642

@<SCITEGIC>MOL_PROPERTY
U+W
SciTegic.value.DoubleValue
-15.222

@<SCITEGIC>MOL_PROPERTY
Grad RMS
SciTegic.value.DoubleValue
0.000000

@<SCITEGIC>MOL_PROPERTY
U
SciTegic.value.DoubleValue
45.697

@<SCITEGIC>MOL_PROPERTY
W
SciTegic.value.DoubleValue
-60.919

@<SCITEGIC>MOL_PROPERTY
W(PB)
SciTegic.value.DoubleValue
-62.631

@<SCITEGIC>MOL_PROPERTY
W(SA)
SciTegic.value.DoubleValue
1.712

@<SCITEGIC>MOL_PROPERTY
Valence
SciTegic.value.DoubleValue
1.262

@<SCITEGIC>MOL_PROPERTY
Coulomb
SciTegic.value.DoubleValue
44.179

@<SCITEGIC>MOL_PROPERTY
VdW
SciTegic.value.DoubleValue
0.255

@<SCITEGIC>MOL_PROPERTY
VdW6
SciTegic.value.DoubleValue
-3.552

@<SCITEGIC>MOL_PROPERTY
VdW12
SciTegic.value.DoubleValue
3.807

@<SCITEGIC>MOL_PROPERTY
Bond
SciTegic.value.DoubleValue
0.125

@<SCITEGIC>MOL_PROPERTY
Angle
SciTegic.value.DoubleValue
0.616

@<SCITEGIC>MOL_PROPERTY
Pdih
SciTegic.value.DoubleValue
0.521

@<SCITEGIC>MOL_PROPERTY
Idih
SciTegic.value.DoubleValue
0.000

@<SCITEGIC>MOL_PROPERTY
Tether
SciTegic.value.DoubleValue
0.000

@<TRIPOS>MOLECULE
guest-1_confgen4.mol2 : confsearch ligand conformer 127
          17          16           1
SMALL
USER_CHARGES
 
@<TRIPOS>ATOM
       1    N1      18.068729   17.402251   21.079832 N.4        1 MOL1        -0.5891
       2    H1      18.599672   16.541384   21.243239 H          1 MOL1         0.3726
       3    H2      18.039421   17.549686   20.066372 H          1 MOL1         0.3726
       4    H3      17.106079   17.218113   21.380343 H          1 MOL1         0.3726
       5    C1      18.669807   18.587310   21.809008 C.3        1 MOL1         0.0314
       6    H4      18.640550   18.374278   22.881055 H          1 MOL1         0.0999
       7    H5      18.038071   19.458527   21.615578 H          1 MOL1         0.0999
       8    C2      20.116991   18.892380   21.381398 C.3        1 MOL1        -0.1308
       9    H6      20.745194   18.010069   21.562722 H          1 MOL1         0.1025
      10    H7      20.144767   19.090731   20.301641 H          1 MOL1         0.1025
      11    C3      20.690767   20.104779   22.147158 C.3        1 MOL1        -0.1243
      12    H8      20.660159   19.908170   23.228238 H          1 MOL1         0.1025
      13    H9      20.060517   20.987527   21.968644 H          1 MOL1         0.1025
      14    C4      22.142354   20.416757   21.723461 C.3        1 MOL1        -0.2258
      15    H10     22.531270   21.280372   22.278406 H          1 MOL1         0.1036
      16    H11     22.199850   20.651610   20.652600 H          1 MOL1         0.1036
      17    H12     22.804209   19.563701   21.922085 H          1 MOL1         0.1036
@<TRIPOS>BOND
    1     1     2    1
    2     1     3    1
    3     1     4    1
    4     1     5    1
    5     5     6    1
    6     5     7    1
    7     5     8    1
    8     8     9    1
    9     8    10    1
   10     8    11    1
   11    11    12    1
   12    11    13    1
   13    11    14    1
   14    14    15    1
   15    14    16    1
   16    14    17    1
@<TRIPOS>SUBSTRUCTURE
       1 MOL1            1 RESIDUE      1      MOL     
@<SCITEGIC>MOL_PROPERTY
VConf Rank
SciTegic.value.IntegerValue
127

@<SCITEGIC>MOL_PROPERTY
Conf_Id
SciTegic.value.IntegerValue
7

@<SCITEGIC>MOL_PROPERTY
Delta U+W
SciTegic.value.DoubleValue
0.000

@<SCITEGIC>MOL_PROPERTY
U+W
SciTegic.value.DoubleValue
-15.865

@<SCITEGIC>MOL_PROPERTY
Grad RMS
SciTegic.value.DoubleValue
0.000000

@<SCITEGIC>MOL_PROPERTY
U
SciTegic.value.DoubleValue
44.664

@<SCITEGIC>MOL_PROPERTY
W
SciTegic.value.DoubleValue
-60.529

@<SCITEGIC>MOL_PROPERTY
W(PB)
SciTegic.value.DoubleValue
-62.309

@<SCITEGIC>MOL_PROPERTY
W(SA)
SciTegic.value.DoubleValue
1.780

@<SCITEGIC>MOL_PROPERTY
Valence
SciTegic.value.DoubleValue
0.872

@<SCITEGIC>MOL_PROPERTY
Coulomb
SciTegic.value.DoubleValue
43.648

@<SCITEGIC>MOL_PROPERTY
VdW
SciTegic.value.DoubleValue
0.144

@<SCITEGIC>MOL_PROPERTY
VdW6
SciTegic.value.DoubleValue
-2.370

@<SCITEGIC>MOL_PROPERTY
VdW12
SciTegic.value.DoubleValue
2.515

@<SCITEGIC>MOL_PROPERTY
Bond
SciTegic.value.DoubleValue
0.080

@<SCITEGIC>MOL_PROPERTY
Angle
SciTegic.value.DoubleValue
0.376

@<SCITEGIC>MOL_PROPERTY
Pdih
SciTegic.value.DoubleValue
0.416

@<SCITEGIC>MOL_PROPERTY
Idih
SciTegic.value.DoubleValue
0.000

@<SCITEGIC>MOL_PROPERTY
Tether
SciTegic.value.DoubleValue
0.000

@<TRIPOS>MOLECULE
guest-1_confgen4.mol2 : confsearch ligand conformer 128
          17          16           1
SMALL
USER_CHARGES
 
@<TRIPOS>ATOM
       1    N1      18.353436   17.619825   20.539881 N.4        1 MOL1        -0.5891
       2    H1      17.540867   17.501390   21.152541 H          1 MOL1         0.3726
       3    H2      18.904432   16.758269   20.601297 H          1 MOL1         0.3726
       4    H3      17.995728   17.675157   19.580805 H          1 MOL1         0.3726
       5    C1      19.169228   18.842852   20.908725 C.3        1 MOL1         0.0314
       6    H4      18.530704   19.722700   20.792258 H          1 MOL1         0.0999
       7    H5      19.995605   18.922277   20.197649 H          1 MOL1         0.0999
       8    C2      19.723046   18.792031   22.345618 C.3        1 MOL1        -0.1308
       9    H6      18.888285   18.671965   23.048922 H          1 MOL1         0.1025
      10    H7      20.363014   17.907420   22.463060 H          1 MOL1         0.1025
      11    C3      20.520171   20.062564   22.722900 C.3        1 MOL1        -0.1243
      12    H8      20.816330   19.997551   23.779330 H          1 MOL1         0.1025
      13    H9      19.871294   20.945696   22.637934 H          1 MOL1         0.1025
      14    C4      21.784697   20.262105   21.856232 C.3        1 MOL1        -0.2258
      15    H10     22.448224   19.389781   21.918760 H          1 MOL1         0.1036
      16    H11     22.350898   21.138422   22.197541 H          1 MOL1         0.1036
      17    H12     21.529423   20.423767   20.801343 H          1 MOL1         0.1036
@<TRIPOS>BOND
    1     1     2    1
    2     1     3    1
    3     1     4    1
    4     1     5    1
    5     5     6    1
    6     5     7    1
    7     5     8    1
    8     8     9    1
    9     8    10    1
   10     8    11    1
   11    11    12    1
   12    11    13    1
   13    11    14    1
   14    14    15    1
   15    14    16    1
   16    14    17    1
@<TRIPOS>SUBSTRUCTURE
       1 MOL1            1 RESIDUE      1      MOL     
@<SCITEGIC>MOL_PROPERTY
VConf Rank
SciTegic.value.IntegerValue
128

@<SCITEGIC>MOL_PROPERTY
Conf_Id
SciTegic.value.IntegerValue
36

@<SCITEGIC>MOL_PROPERTY
Delta U+W
SciTegic.value.DoubleValue
0.275

@<SCITEGIC>MOL_PROPERTY
U+W
SciTegic.value.DoubleValue
-15.590

@<SCITEGIC>MOL_PROPERTY
Grad RMS
SciTegic.value.DoubleValue
0.000000

@<SCITEGIC>MOL_PROPERTY
U
SciTegic.value.DoubleValue
45.174

@<SCITEGIC>MOL_PROPERTY
W
SciTegic.value.DoubleValue
-60.765

@<SCITEGIC>MOL_PROPERTY
W(PB)
SciTegic.value.DoubleValue
-62.518

@<SCITEGIC>MOL_PROPERTY
W(SA)
SciTegic.value.DoubleValue
1.754

@<SCITEGIC>MOL_PROPERTY
Valence
SciTegic.value.DoubleValue
1.161

@<SCITEGIC>MOL_PROPERTY
Coulomb
SciTegic.value.DoubleValue
43.789

@<SCITEGIC>MOL_PROPERTY
VdW
SciTegic.value.DoubleValue
0.224

@<SCITEGIC>MOL_PROPERTY
VdW6
SciTegic.value.DoubleValue
-2.897

@<SCITEGIC>MOL_PROPERTY
VdW12
SciTegic.value.DoubleValue
3.121

@<SCITEGIC>MOL_PROPERTY
Bond
SciTegic.value.DoubleValue
0.100

@<SCITEGIC>MOL_PROPERTY
Angle
SciTegic.value.DoubleValue
0.500

@<SCITEGIC>MOL_PROPERTY
Pdih
SciTegic.value.DoubleValue
0.561

@<SCITEGIC>MOL_PROPERTY
Idih
SciTegic.value.DoubleValue
0.000

@<SCITEGIC>MOL_PROPERTY
Tether
SciTegic.value.DoubleValue
0.000

@<TRIPOS>MOLECULE
guest-1_confgen4.mol2 : confsearch ligand conformer 129
          17          16           1
SMALL
USER_CHARGES
 
@<TRIPOS>ATOM
       1    N1      18.333049   19.434861   22.424628 N.4        1 MOL1        -0.5891
       2    H1      18.173703   18.919383   21.555297 H          1 MOL1         0.3726
       3    H2      18.176827   20.426412   22.219934 H          1 MOL1         0.3726
       4    H3      17.602339   19.148802   23.084216 H          1 MOL1         0.3726
       5    C1      19.722498   19.186062   22.979210 C.3        1 MOL1         0.0314
       6    H4      19.808144   18.128285   23.242032 H          1 MOL1         0.0999
       7    H5      19.809088   19.770778   23.899072 H          1 MOL1         0.0999
       8    C2      20.867445   19.581002   22.022795 C.3        1 MOL1        -0.1308
       9    H6      20.653358   20.554681   21.562530 H          1 MOL1         0.1025
      10    H7      21.773152   19.725946   22.626561 H          1 MOL1         0.1025
      11    C3      21.185781   18.527143   20.931580 C.3        1 MOL1        -0.1243
      12    H8      21.459899   17.574598   21.406488 H          1 MOL1         0.1025
      13    H9      22.076496   18.858778   20.379643 H          1 MOL1         0.1025
      14    C4      20.041207   18.288082   19.920796 C.3        1 MOL1        -0.2258
      15    H10     19.198581   17.761834   20.384175 H          1 MOL1         0.1036
      16    H11     20.392512   17.663999   19.088774 H          1 MOL1         0.1036
      17    H12     19.679121   19.234069   19.497529 H          1 MOL1         0.1036
@<TRIPOS>BOND
    1     1     2    1
    2     1     3    1
    3     1     4    1
    4     1     5    1
    5     5     6    1
    6     5     7    1
    7     5     8    1
    8     8     9    1
    9     8    10    1
   10     8    11    1
   11    11    12    1
   12    11    13    1
   13    11    14    1
   14    14    15    1
   15    14    16    1
   16    14    17    1
@<TRIPOS>SUBSTRUCTURE
       1 MOL1            1 RESIDUE      1      MOL     
@<SCITEGIC>MOL_PROPERTY
VConf Rank
SciTegic.value.IntegerValue
129

@<SCITEGIC>MOL_PROPERTY
Conf_Id
SciTegic.value.IntegerValue
19

@<SCITEGIC>MOL_PROPERTY
Delta U+W
SciTegic.value.DoubleValue
2.662

@<SCITEGIC>MOL_PROPERTY
U+W
SciTegic.value.DoubleValue
-13.203

@<SCITEGIC>MOL_PROPERTY
Grad RMS
SciTegic.value.DoubleValue
0.000000

@<SCITEGIC>MOL_PROPERTY
U
SciTegic.value.DoubleValue
47.423

@<SCITEGIC>MOL_PROPERTY
W
SciTegic.value.DoubleValue
-60.626

@<SCITEGIC>MOL_PROPERTY
W(PB)
SciTegic.value.DoubleValue
-62.328

@<SCITEGIC>MOL_PROPERTY
W(SA)
SciTegic.value.DoubleValue
1.702

@<SCITEGIC>MOL_PROPERTY
Valence
SciTegic.value.DoubleValue
2.414

@<SCITEGIC>MOL_PROPERTY
Coulomb
SciTegic.value.DoubleValue
44.831

@<SCITEGIC>MOL_PROPERTY
VdW
SciTegic.value.DoubleValue
0.178

@<SCITEGIC>MOL_PROPERTY
VdW6
SciTegic.value.DoubleValue
-3.743

@<SCITEGIC>MOL_PROPERTY
VdW12
SciTegic.value.DoubleValue
3.921

@<SCITEGIC>MOL_PROPERTY
Bond
SciTegic.value.DoubleValue
0.138

@<SCITEGIC>MOL_PROPERTY
Angle
SciTegic.value.DoubleValue
0.941

@<SCITEGIC>MOL_PROPERTY
Pdih
SciTegic.value.DoubleValue
1.335

@<SCITEGIC>MOL_PROPERTY
Idih
SciTegic.value.DoubleValue
0.000

@<SCITEGIC>MOL_PROPERTY
Tether
SciTegic.value.DoubleValue
0.000

@<TRIPOS>MOLECULE
guest-1_confgen4.mol2 : confsearch ligand conformer 130
          17          16           1
SMALL
USER_CHARGES
 
@<TRIPOS>ATOM
       1    N1      20.565854   17.725519   20.504778 N.4        1 MOL1        -0.5891
       2    H1      21.259140   16.977536   20.401338 H          1 MOL1         0.3726
       3    H2      20.155275   17.880091   19.579028 H          1 MOL1         0.3726
       4    H3      19.821584   17.366071   21.107856 H          1 MOL1         0.3726
       5    C1      21.182173   18.992260   21.066524 C.3        1 MOL1         0.0314
       6    H4      21.960081   19.307401   20.365750 H          1 MOL1         0.0999
       7    H5      21.662460   18.752930   22.019071 H          1 MOL1         0.0999
       8    C2      20.182359   20.151408   21.262376 C.3        1 MOL1        -0.1308
       9    H6      20.756449   21.086934   21.294889 H          1 MOL1         0.1025
      10    H7      19.524585   20.232031   20.386840 H          1 MOL1         0.1025
      11    C3      19.341919   20.062656   22.561795 C.3        1 MOL1        -0.1243
      12    H8      18.746603   20.982111   22.652312 H          1 MOL1         0.1025
      13    H9      20.010519   20.046581   23.433998 H          1 MOL1         0.1025
      14    C4      18.386181   18.849526   22.623096 C.3        1 MOL1        -0.2258
      15    H10     17.768106   18.782859   21.718281 H          1 MOL1         0.1036
      16    H11     17.709348   18.941409   23.482520 H          1 MOL1         0.1036
      17    H12     18.936575   17.909523   22.746150 H          1 MOL1         0.1036
@<TRIPOS>BOND
    1     1     2    1
    2     1     3    1
    3     1     4    1
    4     1     5    1
    5     5     6    1
    6     5     7    1
    7     5     8    1
    8     8     9    1
    9     8    10    1
   10     8    11    1
   11    11    12    1
   12    11    13    1
   13    11    14    1
   14    14    15    1
   15    14    16    1
   16    14    17    1
@<TRIPOS>SUBSTRUCTURE
       1 MOL1            1 RESIDUE      1      MOL     
@<SCITEGIC>MOL_PROPERTY
VConf Rank
SciTegic.value.IntegerValue
130

@<SCITEGIC>MOL_PROPERTY
Conf_Id
SciTegic.value.IntegerValue
44

@<SCITEGIC>MOL_PROPERTY
Delta U+W
SciTegic.value.DoubleValue
2.712

@<SCITEGIC>MOL_PROPERTY
U+W
SciTegic.value.DoubleValue
-13.153

@<SCITEGIC>MOL_PROPERTY
Grad RMS
SciTegic.value.DoubleValue
0.000000

@<SCITEGIC>MOL_PROPERTY
U
SciTegic.value.DoubleValue
47.423

@<SCITEGIC>MOL_PROPERTY
W
SciTegic.value.DoubleValue
-60.576

@<SCITEGIC>MOL_PROPERTY
W(PB)
SciTegic.value.DoubleValue
-62.262

@<SCITEGIC>MOL_PROPERTY
W(SA)
SciTegic.value.DoubleValue
1.687

@<SCITEGIC>MOL_PROPERTY
Valence
SciTegic.value.DoubleValue
2.414

@<SCITEGIC>MOL_PROPERTY
Coulomb
SciTegic.value.DoubleValue
44.831

@<SCITEGIC>MOL_PROPERTY
VdW
SciTegic.value.DoubleValue
0.178

@<SCITEGIC>MOL_PROPERTY
VdW6
SciTegic.value.DoubleValue
-3.743

@<SCITEGIC>MOL_PROPERTY
VdW12
SciTegic.value.DoubleValue
3.922

@<SCITEGIC>MOL_PROPERTY
Bond
SciTegic.value.DoubleValue
0.138

@<SCITEGIC>MOL_PROPERTY
Angle
SciTegic.value.DoubleValue
0.941

@<SCITEGIC>MOL_PROPERTY
Pdih
SciTegic.value.DoubleValue
1.335

@<SCITEGIC>MOL_PROPERTY
Idih
SciTegic.value.DoubleValue
0.000

@<SCITEGIC>MOL_PROPERTY
Tether
SciTegic.value.DoubleValue
0.000

@<TRIPOS>MOLECULE
guest-1_confgen4.mol2 : confsearch ligand conformer 131
          17          16           1
SMALL
USER_CHARGES
 
@<TRIPOS>ATOM
       1    N1      21.035551   18.410095   23.116825 N.4        1 MOL1        -0.5891
       2    H1      21.489411   18.090341   22.256468 H          1 MOL1         0.3726
       3    H2      20.627324   17.586061   23.568154 H          1 MOL1         0.3726
       4    H3      21.776687   18.752396   23.736675 H          1 MOL1         0.3726
       5    C1      19.994439   19.477375   22.839592 C.3        1 MOL1         0.0314
       6    H4      20.499475   20.335010   22.387702 H          1 MOL1         0.0999
       7    H5      19.580795   19.796487   23.800115 H          1 MOL1         0.0999
       8    C2      18.848112   19.005509   21.921334 C.3        1 MOL1        -0.1308
       9    H6      18.321580   18.170504   22.402248 H          1 MOL1         0.1025
      10    H7      18.114437   19.817405   21.829947 H          1 MOL1         0.1025
      11    C3      19.310414   18.575307   20.506852 C.3        1 MOL1        -0.1243
      12    H8      18.433321   18.243537   19.933668 H          1 MOL1         0.1025
      13    H9      19.974876   17.703297   20.575718 H          1 MOL1         0.1025
      14    C4      20.018240   19.709177   19.730244 C.3        1 MOL1        -0.2258
      15    H10     19.372668   20.593129   19.646975 H          1 MOL1         0.1036
      16    H11     20.269012   19.380983   18.713204 H          1 MOL1         0.1036
      17    H12     20.952299   20.012150   20.219826 H          1 MOL1         0.1036
@<TRIPOS>BOND
    1     1     2    1
    2     1     3    1
    3     1     4    1
    4     1     5    1
    5     5     6    1
    6     5     7    1
    7     5     8    1
    8     8     9    1
    9     8    10    1
   10     8    11    1
   11    11    12    1
   12    11    13    1
   13    11    14    1
   14    14    15    1
   15    14    16    1
   16    14    17    1
@<TRIPOS>SUBSTRUCTURE
       1 MOL1            1 RESIDUE      1      MOL     
@<SCITEGIC>MOL_PROPERTY
VConf Rank
SciTegic.value.IntegerValue
131

@<SCITEGIC>MOL_PROPERTY
Conf_Id
SciTegic.value.IntegerValue
1

@<SCITEGIC>MOL_PROPERTY
Delta U+W
SciTegic.value.DoubleValue
0.685

@<SCITEGIC>MOL_PROPERTY
U+W
SciTegic.value.DoubleValue
-15.179

@<SCITEGIC>MOL_PROPERTY
Grad RMS
SciTegic.value.DoubleValue
0.000000

@<SCITEGIC>MOL_PROPERTY
U
SciTegic.value.DoubleValue
45.697

@<SCITEGIC>MOL_PROPERTY
W
SciTegic.value.DoubleValue
-60.876

@<SCITEGIC>MOL_PROPERTY
W(PB)
SciTegic.value.DoubleValue
-62.586

@<SCITEGIC>MOL_PROPERTY
W(SA)
SciTegic.value.DoubleValue
1.710

@<SCITEGIC>MOL_PROPERTY
Valence
SciTegic.value.DoubleValue
1.263

@<SCITEGIC>MOL_PROPERTY
Coulomb
SciTegic.value.DoubleValue
44.179

@<SCITEGIC>MOL_PROPERTY
VdW
SciTegic.value.DoubleValue
0.255

@<SCITEGIC>MOL_PROPERTY
VdW6
SciTegic.value.DoubleValue
-3.552

@<SCITEGIC>MOL_PROPERTY
VdW12
SciTegic.value.DoubleValue
3.807

@<SCITEGIC>MOL_PROPERTY
Bond
SciTegic.value.DoubleValue
0.125

@<SCITEGIC>MOL_PROPERTY
Angle
SciTegic.value.DoubleValue
0.616

@<SCITEGIC>MOL_PROPERTY
Pdih
SciTegic.value.DoubleValue
0.521

@<SCITEGIC>MOL_PROPERTY
Idih
SciTegic.value.DoubleValue
0.000

@<SCITEGIC>MOL_PROPERTY
Tether
SciTegic.value.DoubleValue
0.000

@<TRIPOS>MOLECULE
guest-1_confgen4.mol2 : confsearch ligand conformer 132
          17          16           1
SMALL
USER_CHARGES
 
@<TRIPOS>ATOM
       1    N1      19.110396   20.320754   22.869885 N.4        1 MOL1        -0.5891
       2    H1      19.728096   21.119510   23.042550 H          1 MOL1         0.3726
       3    H2      19.466824   19.537075   23.424191 H          1 MOL1         0.3726
       4    H3      18.192328   20.565968   23.254186 H          1 MOL1         0.3726
       5    C1      19.030656   19.975556   21.395321 C.3        1 MOL1         0.0314
       6    H4      18.609233   20.839073   20.873517 H          1 MOL1         0.0999
       7    H5      18.336492   19.139174   21.279530 H          1 MOL1         0.0999
       8    C2      20.391741   19.612926   20.766140 C.3        1 MOL1        -0.1308
       9    H6      20.247428   19.442487   19.691000 H          1 MOL1         0.1025
      10    H7      21.068689   20.473326   20.851007 H          1 MOL1         0.1025
      11    C3      21.063766   18.366278   21.393683 C.3        1 MOL1        -0.1243
      12    H8      21.298754   18.555465   22.449923 H          1 MOL1         0.1025
      13    H9      22.027899   18.195198   20.894599 H          1 MOL1         0.1025
      14    C4      20.202057   17.088529   21.272805 C.3        1 MOL1        -0.2258
      15    H10     20.743185   16.220154   21.670388 H          1 MOL1         0.1036
      16    H11     19.954511   16.877249   20.224402 H          1 MOL1         0.1036
      17    H12     19.263932   17.179318   21.834613 H          1 MOL1         0.1036
@<TRIPOS>BOND
    1     1     2    1
    2     1     3    1
    3     1     4    1
    4     1     5    1
    5     5     6    1
    6     5     7    1
    7     5     8    1
    8     8     9    1
    9     8    10    1
   10     8    11    1
   11    11    12    1
   12    11    13    1
   13    11    14    1
   14    14    15    1
   15    14    16    1
   16    14    17    1
@<TRIPOS>SUBSTRUCTURE
       1 MOL1            1 RESIDUE      1      MOL     
@<SCITEGIC>MOL_PROPERTY
VConf Rank
SciTegic.value.IntegerValue
132

@<SCITEGIC>MOL_PROPERTY
Conf_Id
SciTegic.value.IntegerValue
43

@<SCITEGIC>MOL_PROPERTY
Delta U+W
SciTegic.value.DoubleValue
0.642

@<SCITEGIC>MOL_PROPERTY
U+W
SciTegic.value.DoubleValue
-15.222

@<SCITEGIC>MOL_PROPERTY
Grad RMS
SciTegic.value.DoubleValue
0.000000

@<SCITEGIC>MOL_PROPERTY
U
SciTegic.value.DoubleValue
45.697

@<SCITEGIC>MOL_PROPERTY
W
SciTegic.value.DoubleValue
-60.919

@<SCITEGIC>MOL_PROPERTY
W(PB)
SciTegic.value.DoubleValue
-62.631

@<SCITEGIC>MOL_PROPERTY
W(SA)
SciTegic.value.DoubleValue
1.712

@<SCITEGIC>MOL_PROPERTY
Valence
SciTegic.value.DoubleValue
1.262

@<SCITEGIC>MOL_PROPERTY
Coulomb
SciTegic.value.DoubleValue
44.179

@<SCITEGIC>MOL_PROPERTY
VdW
SciTegic.value.DoubleValue
0.255

@<SCITEGIC>MOL_PROPERTY
VdW6
SciTegic.value.DoubleValue
-3.552

@<SCITEGIC>MOL_PROPERTY
VdW12
SciTegic.value.DoubleValue
3.807

@<SCITEGIC>MOL_PROPERTY
Bond
SciTegic.value.DoubleValue
0.125

@<SCITEGIC>MOL_PROPERTY
Angle
SciTegic.value.DoubleValue
0.616

@<SCITEGIC>MOL_PROPERTY
Pdih
SciTegic.value.DoubleValue
0.521

@<SCITEGIC>MOL_PROPERTY
Idih
SciTegic.value.DoubleValue
0.000

@<SCITEGIC>MOL_PROPERTY
Tether
SciTegic.value.DoubleValue
0.000

@<TRIPOS>MOLECULE
guest-1_confgen4.mol2 : confsearch ligand conformer 133
          17          16           1
SMALL
USER_CHARGES
 
@<TRIPOS>ATOM
       1    N1      17.532682   18.218537   21.540656 N.4        1 MOL1        -0.5891
       2    H1      17.200294   18.709462   22.376244 H          1 MOL1         0.3726
       3    H2      17.721859   17.250043   21.816210 H          1 MOL1         0.3726
       4    H3      16.748065   18.191089   20.881467 H          1 MOL1         0.3726
       5    C1      18.752487   18.885974   20.937366 C.3        1 MOL1         0.0314
       6    H4      18.470288   19.899639   20.640097 H          1 MOL1         0.0999
       7    H5      19.031116   18.330315   20.037848 H          1 MOL1         0.0999
       8    C2      19.951301   18.944362   21.901575 C.3        1 MOL1        -0.1308
       9    H6      19.663090   19.489652   22.810191 H          1 MOL1         0.1025
      10    H7      20.222081   17.925732   22.209895 H          1 MOL1         0.1025
      11    C3      21.171049   19.630960   21.248644 C.3        1 MOL1        -0.1243
      12    H8      20.899661   20.649501   20.936798 H          1 MOL1         0.1025
      13    H9      21.458019   19.087458   20.337282 H          1 MOL1         0.1025
      14    C4      22.377580   19.693244   22.210079 C.3        1 MOL1        -0.2258
      15    H10     23.232873   20.184107   21.727817 H          1 MOL1         0.1036
      16    H11     22.694379   18.686623   22.512668 H          1 MOL1         0.1036
      17    H12     22.131584   20.260948   23.116945 H          1 MOL1         0.1036
@<TRIPOS>BOND
    1     1     2    1
    2     1     3    1
    3     1     4    1
    4     1     5    1
    5     5     6    1
    6     5     7    1
    7     5     8    1
    8     8     9    1
    9     8    10    1
   10     8    11    1
   11    11    12    1
   12    11    13    1
   13    11    14    1
   14    14    15    1
   15    14    16    1
   16    14    17    1
@<TRIPOS>SUBSTRUCTURE
       1 MOL1            1 RESIDUE      1      MOL     
@<SCITEGIC>MOL_PROPERTY
VConf Rank
SciTegic.value.IntegerValue
133

@<SCITEGIC>MOL_PROPERTY
Conf_Id
SciTegic.value.IntegerValue
7

@<SCITEGIC>MOL_PROPERTY
Delta U+W
SciTegic.value.DoubleValue
0.000

@<SCITEGIC>MOL_PROPERTY
U+W
SciTegic.value.DoubleValue
-15.865

@<SCITEGIC>MOL_PROPERTY
Grad RMS
SciTegic.value.DoubleValue
0.000000

@<SCITEGIC>MOL_PROPERTY
U
SciTegic.value.DoubleValue
44.664

@<SCITEGIC>MOL_PROPERTY
W
SciTegic.value.DoubleValue
-60.529

@<SCITEGIC>MOL_PROPERTY
W(PB)
SciTegic.value.DoubleValue
-62.309

@<SCITEGIC>MOL_PROPERTY
W(SA)
SciTegic.value.DoubleValue
1.780

@<SCITEGIC>MOL_PROPERTY
Valence
SciTegic.value.DoubleValue
0.872

@<SCITEGIC>MOL_PROPERTY
Coulomb
SciTegic.value.DoubleValue
43.648

@<SCITEGIC>MOL_PROPERTY
VdW
SciTegic.value.DoubleValue
0.144

@<SCITEGIC>MOL_PROPERTY
VdW6
SciTegic.value.DoubleValue
-2.370

@<SCITEGIC>MOL_PROPERTY
VdW12
SciTegic.value.DoubleValue
2.515

@<SCITEGIC>MOL_PROPERTY
Bond
SciTegic.value.DoubleValue
0.080

@<SCITEGIC>MOL_PROPERTY
Angle
SciTegic.value.DoubleValue
0.376

@<SCITEGIC>MOL_PROPERTY
Pdih
SciTegic.value.DoubleValue
0.416

@<SCITEGIC>MOL_PROPERTY
Idih
SciTegic.value.DoubleValue
0.000

@<SCITEGIC>MOL_PROPERTY
Tether
SciTegic.value.DoubleValue
0.000

@<TRIPOS>MOLECULE
guest-1_confgen4.mol2 : confsearch ligand conformer 134
          17          16           1
SMALL
USER_CHARGES
 
@<TRIPOS>ATOM
       1    N1      18.145596   20.289371   22.727007 N.4        1 MOL1        -0.5891
       2    H1      18.003551   21.184540   22.249364 H          1 MOL1         0.3726
       3    H2      18.635447   20.490901   23.603978 H          1 MOL1         0.3726
       4    H3      17.216478   19.938142   22.980428 H          1 MOL1         0.3726
       5    C1      18.906441   19.300824   21.866050 C.3        1 MOL1         0.0314
       6    H4      18.314622   19.110496   20.966642 H          1 MOL1         0.0999
       7    H5      18.991931   18.365171   22.424693 H          1 MOL1         0.0999
       8    C2      20.309147   19.797824   21.466843 C.3        1 MOL1        -0.1308
       9    H6      20.214836   20.757616   20.941694 H          1 MOL1         0.1025
      10    H7      20.902979   19.990576   22.370224 H          1 MOL1         0.1025
      11    C3      21.059591   18.797730   20.556540 C.3        1 MOL1        -0.1243
      12    H8      22.013642   19.245505   20.244664 H          1 MOL1         0.1025
      13    H9      20.482236   18.629219   19.636514 H          1 MOL1         0.1025
      14    C4      21.340377   17.444118   21.248532 C.3        1 MOL1        -0.2258
      15    H10     21.911769   17.585152   22.175216 H          1 MOL1         0.1036
      16    H11     21.926386   16.789607   20.590341 H          1 MOL1         0.1036
      17    H12     20.410353   16.916982   21.496069 H          1 MOL1         0.1036
@<TRIPOS>BOND
    1     1     2    1
    2     1     3    1
    3     1     4    1
    4     1     5    1
    5     5     6    1
    6     5     7    1
    7     5     8    1
    8     8     9    1
    9     8    10    1
   10     8    11    1
   11    11    12    1
   12    11    13    1
   13    11    14    1
   14    14    15    1
   15    14    16    1
   16    14    17    1
@<TRIPOS>SUBSTRUCTURE
       1 MOL1            1 RESIDUE      1      MOL     
@<SCITEGIC>MOL_PROPERTY
VConf Rank
SciTegic.value.IntegerValue
134

@<SCITEGIC>MOL_PROPERTY
Conf_Id
SciTegic.value.IntegerValue
36

@<SCITEGIC>MOL_PROPERTY
Delta U+W
SciTegic.value.DoubleValue
0.275

@<SCITEGIC>MOL_PROPERTY
U+W
SciTegic.value.DoubleValue
-15.590

@<SCITEGIC>MOL_PROPERTY
Grad RMS
SciTegic.value.DoubleValue
0.000000

@<SCITEGIC>MOL_PROPERTY
U
SciTegic.value.DoubleValue
45.174

@<SCITEGIC>MOL_PROPERTY
W
SciTegic.value.DoubleValue
-60.765

@<SCITEGIC>MOL_PROPERTY
W(PB)
SciTegic.value.DoubleValue
-62.518

@<SCITEGIC>MOL_PROPERTY
W(SA)
SciTegic.value.DoubleValue
1.754

@<SCITEGIC>MOL_PROPERTY
Valence
SciTegic.value.DoubleValue
1.161

@<SCITEGIC>MOL_PROPERTY
Coulomb
SciTegic.value.DoubleValue
43.789

@<SCITEGIC>MOL_PROPERTY
VdW
SciTegic.value.DoubleValue
0.224

@<SCITEGIC>MOL_PROPERTY
VdW6
SciTegic.value.DoubleValue
-2.897

@<SCITEGIC>MOL_PROPERTY
VdW12
SciTegic.value.DoubleValue
3.121

@<SCITEGIC>MOL_PROPERTY
Bond
SciTegic.value.DoubleValue
0.100

@<SCITEGIC>MOL_PROPERTY
Angle
SciTegic.value.DoubleValue
0.500

@<SCITEGIC>MOL_PROPERTY
Pdih
SciTegic.value.DoubleValue
0.561

@<SCITEGIC>MOL_PROPERTY
Idih
SciTegic.value.DoubleValue
0.000

@<SCITEGIC>MOL_PROPERTY
Tether
SciTegic.value.DoubleValue
0.000

@<TRIPOS>MOLECULE
guest-1_confgen4.mol2 : confsearch ligand conformer 135
          17          16           1
SMALL
USER_CHARGES
 
@<TRIPOS>ATOM
       1    N1      18.845177   18.066460   22.789708 N.4        1 MOL1        -0.5891
       2    H1      19.312593   18.852767   23.248064 H          1 MOL1         0.3726
       3    H2      19.358846   17.218544   23.047897 H          1 MOL1         0.3726
       4    H3      17.911250   17.986145   23.204619 H          1 MOL1         0.3726
       5    C1      18.780428   18.250079   21.285672 C.3        1 MOL1         0.0314
       6    H4      18.165768   19.127706   21.068268 H          1 MOL1         0.0999
       7    H5      18.271974   17.372150   20.877931 H          1 MOL1         0.0999
       8    C2      20.157527   18.395088   20.604362 C.3        1 MOL1        -0.1308
       9    H6      20.858255   17.654649   21.012357 H          1 MOL1         0.1025
      10    H7      20.034603   18.140634   19.543235 H          1 MOL1         0.1025
      11    C3      20.768275   19.817438   20.685665 C.3        1 MOL1        -0.1243
      12    H8      20.085384   20.540206   20.217384 H          1 MOL1         0.1025
      13    H9      21.687667   19.834144   20.083643 H          1 MOL1         0.1025
      14    C4      21.109773   20.285318   22.118617 C.3        1 MOL1        -0.2258
      15    H10     20.204222   20.486593   22.702690 H          1 MOL1         0.1036
      16    H11     21.686669   21.218769   22.086754 H          1 MOL1         0.1036
      17    H12     21.714787   19.538026   22.648396 H          1 MOL1         0.1036
@<TRIPOS>BOND
    1     1     2    1
    2     1     3    1
    3     1     4    1
    4     1     5    1
    5     5     6    1
    6     5     7    1
    7     5     8    1
    8     8     9    1
    9     8    10    1
   10     8    11    1
   11    11    12    1
   12    11    13    1
   13    11    14    1
   14    14    15    1
   15    14    16    1
   16    14    17    1
@<TRIPOS>SUBSTRUCTURE
       1 MOL1            1 RESIDUE      1      MOL     
@<SCITEGIC>MOL_PROPERTY
VConf Rank
SciTegic.value.IntegerValue
135

@<SCITEGIC>MOL_PROPERTY
Conf_Id
SciTegic.value.IntegerValue
19

@<SCITEGIC>MOL_PROPERTY
Delta U+W
SciTegic.value.DoubleValue
2.662

@<SCITEGIC>MOL_PROPERTY
U+W
SciTegic.value.DoubleValue
-13.203

@<SCITEGIC>MOL_PROPERTY
Grad RMS
SciTegic.value.DoubleValue
0.000000

@<SCITEGIC>MOL_PROPERTY
U
SciTegic.value.DoubleValue
47.423

@<SCITEGIC>MOL_PROPERTY
W
SciTegic.value.DoubleValue
-60.626

@<SCITEGIC>MOL_PROPERTY
W(PB)
SciTegic.value.DoubleValue
-62.328

@<SCITEGIC>MOL_PROPERTY
W(SA)
SciTegic.value.DoubleValue
1.702

@<SCITEGIC>MOL_PROPERTY
Valence
SciTegic.value.DoubleValue
2.414

@<SCITEGIC>MOL_PROPERTY
Coulomb
SciTegic.value.DoubleValue
44.831

@<SCITEGIC>MOL_PROPERTY
VdW
SciTegic.value.DoubleValue
0.178

@<SCITEGIC>MOL_PROPERTY
VdW6
SciTegic.value.DoubleValue
-3.743

@<SCITEGIC>MOL_PROPERTY
VdW12
SciTegic.value.DoubleValue
3.921

@<SCITEGIC>MOL_PROPERTY
Bond
SciTegic.value.DoubleValue
0.138

@<SCITEGIC>MOL_PROPERTY
Angle
SciTegic.value.DoubleValue
0.941

@<SCITEGIC>MOL_PROPERTY
Pdih
SciTegic.value.DoubleValue
1.335

@<SCITEGIC>MOL_PROPERTY
Idih
SciTegic.value.DoubleValue
0.000

@<SCITEGIC>MOL_PROPERTY
Tether
SciTegic.value.DoubleValue
0.000

@<TRIPOS>MOLECULE
guest-1_confgen4.mol2 : confsearch ligand conformer 136
          17          16           1
SMALL
USER_CHARGES
 
@<TRIPOS>ATOM
       1    N1      18.124542   18.507839   21.855154 N.4        1 MOL1        -0.5891
       2    H1      17.131775   18.744796   21.759816 H          1 MOL1         0.3726
       3    H2      18.174555   17.666774   22.437896 H          1 MOL1         0.3726
       4    H3      18.464119   18.250124   20.925039 H          1 MOL1         0.3726
       5    C1      18.923357   19.652542   22.448103 C.3        1 MOL1         0.0314
       6    H4      18.499615   19.861104   23.434248 H          1 MOL1         0.0999
       7    H5      18.778251   20.538329   21.823901 H          1 MOL1         0.0999
       8    C2      20.431366   19.361995   22.600096 C.3        1 MOL1        -0.1308
       9    H6      20.831084   20.052583   23.354522 H          1 MOL1         0.1025
      10    H7      20.580338   18.352886   23.006589 H          1 MOL1         0.1025
      11    C3      21.255728   19.546865   21.300498 C.3        1 MOL1        -0.1243
      12    H8      22.319748   19.419293   21.544582 H          1 MOL1         0.1025
      13    H9      21.148727   20.579170   20.938670 H          1 MOL1         0.1025
      14    C4      20.889632   18.562986   20.166111 C.3        1 MOL1        -0.2258
      15    H10     20.894703   17.524504   20.522035 H          1 MOL1         0.1036
      16    H11     21.617542   18.637936   19.347767 H          1 MOL1         0.1036
      17    H12     19.904131   18.787119   19.741574 H          1 MOL1         0.1036
@<TRIPOS>BOND
    1     1     2    1
    2     1     3    1
    3     1     4    1
    4     1     5    1
    5     5     6    1
    6     5     7    1
    7     5     8    1
    8     8     9    1
    9     8    10    1
   10     8    11    1
   11    11    12    1
   12    11    13    1
   13    11    14    1
   14    14    15    1
   15    14    16    1
   16    14    17    1
@<TRIPOS>SUBSTRUCTURE
       1 MOL1            1 RESIDUE      1      MOL     
@<SCITEGIC>MOL_PROPERTY
VConf Rank
SciTegic.value.IntegerValue
136

@<SCITEGIC>MOL_PROPERTY
Conf_Id
SciTegic.value.IntegerValue
44

@<SCITEGIC>MOL_PROPERTY
Delta U+W
SciTegic.value.DoubleValue
2.712

@<SCITEGIC>MOL_PROPERTY
U+W
SciTegic.value.DoubleValue
-13.153

@<SCITEGIC>MOL_PROPERTY
Grad RMS
SciTegic.value.DoubleValue
0.000000

@<SCITEGIC>MOL_PROPERTY
U
SciTegic.value.DoubleValue
47.423

@<SCITEGIC>MOL_PROPERTY
W
SciTegic.value.DoubleValue
-60.576

@<SCITEGIC>MOL_PROPERTY
W(PB)
SciTegic.value.DoubleValue
-62.262

@<SCITEGIC>MOL_PROPERTY
W(SA)
SciTegic.value.DoubleValue
1.687

@<SCITEGIC>MOL_PROPERTY
Valence
SciTegic.value.DoubleValue
2.414

@<SCITEGIC>MOL_PROPERTY
Coulomb
SciTegic.value.DoubleValue
44.831

@<SCITEGIC>MOL_PROPERTY
VdW
SciTegic.value.DoubleValue
0.178

@<SCITEGIC>MOL_PROPERTY
VdW6
SciTegic.value.DoubleValue
-3.743

@<SCITEGIC>MOL_PROPERTY
VdW12
SciTegic.value.DoubleValue
3.922

@<SCITEGIC>MOL_PROPERTY
Bond
SciTegic.value.DoubleValue
0.138

@<SCITEGIC>MOL_PROPERTY
Angle
SciTegic.value.DoubleValue
0.941

@<SCITEGIC>MOL_PROPERTY
Pdih
SciTegic.value.DoubleValue
1.335

@<SCITEGIC>MOL_PROPERTY
Idih
SciTegic.value.DoubleValue
0.000

@<SCITEGIC>MOL_PROPERTY
Tether
SciTegic.value.DoubleValue
0.000

@<TRIPOS>MOLECULE
guest-1_confgen4.mol2 : confsearch ligand conformer 137
          17          16           1
SMALL
USER_CHARGES
 
@<TRIPOS>ATOM
       1    N1      19.244842   17.205008   21.239916 N.4        1 MOL1        -0.5891
       2    H1      19.020009   17.774450   20.419165 H          1 MOL1         0.3726
       3    H2      18.365421   17.024154   21.733160 H          1 MOL1         0.3726
       4    H3      19.583114   16.301487   20.893666 H          1 MOL1         0.3726
       5    C1      20.264973   17.884589   22.132866 C.3        1 MOL1         0.0314
       6    H4      21.183760   18.020288   21.556479 H          1 MOL1         0.0999
       7    H5      20.483947   17.207798   22.963253 H          1 MOL1         0.0999
       8    C2      19.795968   19.243805   22.691871 C.3        1 MOL1        -0.1308
       9    H6      18.896177   19.091248   23.302486 H          1 MOL1         0.1025
      10    H7      20.566397   19.627935   23.373550 H          1 MOL1         0.1025
      11    C3      19.504120   20.306044   21.602821 C.3        1 MOL1        -0.1243
      12    H8      19.164499   21.229900   22.091751 H          1 MOL1         0.1025
      13    H9      18.671382   19.976014   20.966990 H          1 MOL1         0.1025
      14    C4      20.734982   20.626239   20.724041 C.3        1 MOL1        -0.2258
      15    H10     21.581854   20.959939   21.337654 H          1 MOL1         0.1036
      16    H11     20.501398   21.428124   20.011730 H          1 MOL1         0.1036
      17    H12     21.055800   19.751740   20.144150 H          1 MOL1         0.1036
@<TRIPOS>BOND
    1     1     2    1
    2     1     3    1
    3     1     4    1
    4     1     5    1
    5     5     6    1
    6     5     7    1
    7     5     8    1
    8     8     9    1
    9     8    10    1
   10     8    11    1
   11    11    12    1
   12    11    13    1
   13    11    14    1
   14    14    15    1
   15    14    16    1
   16    14    17    1
@<TRIPOS>SUBSTRUCTURE
       1 MOL1            1 RESIDUE      1      MOL     
@<SCITEGIC>MOL_PROPERTY
VConf Rank
SciTegic.value.IntegerValue
137

@<SCITEGIC>MOL_PROPERTY
Conf_Id
SciTegic.value.IntegerValue
1

@<SCITEGIC>MOL_PROPERTY
Delta U+W
SciTegic.value.DoubleValue
0.685

@<SCITEGIC>MOL_PROPERTY
U+W
SciTegic.value.DoubleValue
-15.179

@<SCITEGIC>MOL_PROPERTY
Grad RMS
SciTegic.value.DoubleValue
0.000000

@<SCITEGIC>MOL_PROPERTY
U
SciTegic.value.DoubleValue
45.697

@<SCITEGIC>MOL_PROPERTY
W
SciTegic.value.DoubleValue
-60.876

@<SCITEGIC>MOL_PROPERTY
W(PB)
SciTegic.value.DoubleValue
-62.586

@<SCITEGIC>MOL_PROPERTY
W(SA)
SciTegic.value.DoubleValue
1.710

@<SCITEGIC>MOL_PROPERTY
Valence
SciTegic.value.DoubleValue
1.263

@<SCITEGIC>MOL_PROPERTY
Coulomb
SciTegic.value.DoubleValue
44.179

@<SCITEGIC>MOL_PROPERTY
VdW
SciTegic.value.DoubleValue
0.255

@<SCITEGIC>MOL_PROPERTY
VdW6
SciTegic.value.DoubleValue
-3.552

@<SCITEGIC>MOL_PROPERTY
VdW12
SciTegic.value.DoubleValue
3.807

@<SCITEGIC>MOL_PROPERTY
Bond
SciTegic.value.DoubleValue
0.125

@<SCITEGIC>MOL_PROPERTY
Angle
SciTegic.value.DoubleValue
0.616

@<SCITEGIC>MOL_PROPERTY
Pdih
SciTegic.value.DoubleValue
0.521

@<SCITEGIC>MOL_PROPERTY
Idih
SciTegic.value.DoubleValue
0.000

@<SCITEGIC>MOL_PROPERTY
Tether
SciTegic.value.DoubleValue
0.000

@<TRIPOS>MOLECULE
guest-1_confgen4.mol2 : confsearch ligand conformer 138
          17          16           1
SMALL
USER_CHARGES
 
@<TRIPOS>ATOM
       1    N1      18.808390   19.000275   19.957244 N.4        1 MOL1        -0.5891
       2    H1      18.837311   19.899001   19.466498 H          1 MOL1         0.3726
       3    H2      18.172340   19.109771   20.752165 H          1 MOL1         0.3726
       4    H3      18.375269   18.326013   19.318148 H          1 MOL1         0.3726
       5    C1      20.188177   18.552355   20.399303 C.3        1 MOL1         0.0314
       6    H4      20.798763   18.420266   19.501931 H          1 MOL1         0.0999
       7    H5      20.089149   17.578989   20.886702 H          1 MOL1         0.0999
       8    C2      20.888721   19.542605   21.352488 C.3        1 MOL1        -0.1308
       9    H6      21.899153   19.169447   21.565993 H          1 MOL1         0.1025
      10    H7      21.020239   20.504626   20.839686 H          1 MOL1         0.1025
      11    C3      20.137270   19.770392   22.687776 C.3        1 MOL1        -0.1243
      12    H8      19.158080   20.229960   22.496361 H          1 MOL1         0.1025
      13    H9      20.700124   20.496428   23.291075 H          1 MOL1         0.1025
      14    C4      19.952097   18.472785   23.507364 C.3        1 MOL1        -0.2258
      15    H10     19.475153   18.691187   24.471622 H          1 MOL1         0.1036
      16    H11     20.918601   17.994531   23.712817 H          1 MOL1         0.1036
      17    H12     19.317147   17.749410   22.980567 H          1 MOL1         0.1036
@<TRIPOS>BOND
    1     1     2    1
    2     1     3    1
    3     1     4    1
    4     1     5    1
    5     5     6    1
    6     5     7    1
    7     5     8    1
    8     8     9    1
    9     8    10    1
   10     8    11    1
   11    11    12    1
   12    11    13    1
   13    11    14    1
   14    14    15    1
   15    14    16    1
   16    14    17    1
@<TRIPOS>SUBSTRUCTURE
       1 MOL1            1 RESIDUE      1      MOL     
@<SCITEGIC>MOL_PROPERTY
VConf Rank
SciTegic.value.IntegerValue
138

@<SCITEGIC>MOL_PROPERTY
Conf_Id
SciTegic.value.IntegerValue
43

@<SCITEGIC>MOL_PROPERTY
Delta U+W
SciTegic.value.DoubleValue
0.642

@<SCITEGIC>MOL_PROPERTY
U+W
SciTegic.value.DoubleValue
-15.222

@<SCITEGIC>MOL_PROPERTY
Grad RMS
SciTegic.value.DoubleValue
0.000000

@<SCITEGIC>MOL_PROPERTY
U
SciTegic.value.DoubleValue
45.697

@<SCITEGIC>MOL_PROPERTY
W
SciTegic.value.DoubleValue
-60.919

@<SCITEGIC>MOL_PROPERTY
W(PB)
SciTegic.value.DoubleValue
-62.631

@<SCITEGIC>MOL_PROPERTY
W(SA)
SciTegic.value.DoubleValue
1.712

@<SCITEGIC>MOL_PROPERTY
Valence
SciTegic.value.DoubleValue
1.262

@<SCITEGIC>MOL_PROPERTY
Coulomb
SciTegic.value.DoubleValue
44.179

@<SCITEGIC>MOL_PROPERTY
VdW
SciTegic.value.DoubleValue
0.255

@<SCITEGIC>MOL_PROPERTY
VdW6
SciTegic.value.DoubleValue
-3.552

@<SCITEGIC>MOL_PROPERTY
VdW12
SciTegic.value.DoubleValue
3.807

@<SCITEGIC>MOL_PROPERTY
Bond
SciTegic.value.DoubleValue
0.125

@<SCITEGIC>MOL_PROPERTY
Angle
SciTegic.value.DoubleValue
0.616

@<SCITEGIC>MOL_PROPERTY
Pdih
SciTegic.value.DoubleValue
0.521

@<SCITEGIC>MOL_PROPERTY
Idih
SciTegic.value.DoubleValue
0.000

@<SCITEGIC>MOL_PROPERTY
Tether
SciTegic.value.DoubleValue
0.000

@<TRIPOS>MOLECULE
guest-1_confgen4.mol2 : confsearch ligand conformer 139
          17          16           1
SMALL
USER_CHARGES
 
@<TRIPOS>ATOM
       1    N1      21.004572   17.083298   20.346369 N.4        1 MOL1        -0.5891
       2    H1      21.976544   17.249850   20.624263 H          1 MOL1         0.3726
       3    H2      20.894968   17.455356   19.398077 H          1 MOL1         0.3726
       4    H3      20.884964   16.067225   20.281581 H          1 MOL1         0.3726
       5    C1      20.021526   17.705656   21.317785 C.3        1 MOL1         0.0314
       6    H4      20.174207   17.241911   22.296127 H          1 MOL1         0.0999
       7    H5      19.011155   17.462857   20.977604 H          1 MOL1         0.0999
       8    C2      20.173416   19.232850   21.439716 C.3        1 MOL1        -0.1308
       9    H6      21.193814   19.473539   21.766589 H          1 MOL1         0.1025
      10    H7      20.034619   19.693734   20.452644 H          1 MOL1         0.1025
      11    C3      19.154784   19.825966   22.437777 C.3        1 MOL1        -0.1243
      12    H8      19.291032   19.362599   23.425225 H          1 MOL1         0.1025
      13    H9      18.133256   19.582595   22.112854 H          1 MOL1         0.1025
      14    C4      19.301222   21.357708   22.565367 C.3        1 MOL1        -0.2258
      15    H10     18.569427   21.759239   23.278317 H          1 MOL1         0.1036
      16    H11     19.135980   21.852500   21.599405 H          1 MOL1         0.1036
      17    H12     20.302922   21.630763   22.922079 H          1 MOL1         0.1036
@<TRIPOS>BOND
    1     1     2    1
    2     1     3    1
    3     1     4    1
    4     1     5    1
    5     5     6    1
    6     5     7    1
    7     5     8    1
    8     8     9    1
    9     8    10    1
   10     8    11    1
   11    11    12    1
   12    11    13    1
   13    11    14    1
   14    14    15    1
   15    14    16    1
   16    14    17    1
@<TRIPOS>SUBSTRUCTURE
       1 MOL1            1 RESIDUE      1      MOL     
@<SCITEGIC>MOL_PROPERTY
VConf Rank
SciTegic.value.IntegerValue
139

@<SCITEGIC>MOL_PROPERTY
Conf_Id
SciTegic.value.IntegerValue
7

@<SCITEGIC>MOL_PROPERTY
Delta U+W
SciTegic.value.DoubleValue
0.000

@<SCITEGIC>MOL_PROPERTY
U+W
SciTegic.value.DoubleValue
-15.865

@<SCITEGIC>MOL_PROPERTY
Grad RMS
SciTegic.value.DoubleValue
0.000000

@<SCITEGIC>MOL_PROPERTY
U
SciTegic.value.DoubleValue
44.664

@<SCITEGIC>MOL_PROPERTY
W
SciTegic.value.DoubleValue
-60.529

@<SCITEGIC>MOL_PROPERTY
W(PB)
SciTegic.value.DoubleValue
-62.309

@<SCITEGIC>MOL_PROPERTY
W(SA)
SciTegic.value.DoubleValue
1.780

@<SCITEGIC>MOL_PROPERTY
Valence
SciTegic.value.DoubleValue
0.872

@<SCITEGIC>MOL_PROPERTY
Coulomb
SciTegic.value.DoubleValue
43.648

@<SCITEGIC>MOL_PROPERTY
VdW
SciTegic.value.DoubleValue
0.144

@<SCITEGIC>MOL_PROPERTY
VdW6
SciTegic.value.DoubleValue
-2.370

@<SCITEGIC>MOL_PROPERTY
VdW12
SciTegic.value.DoubleValue
2.515

@<SCITEGIC>MOL_PROPERTY
Bond
SciTegic.value.DoubleValue
0.080

@<SCITEGIC>MOL_PROPERTY
Angle
SciTegic.value.DoubleValue
0.376

@<SCITEGIC>MOL_PROPERTY
Pdih
SciTegic.value.DoubleValue
0.416

@<SCITEGIC>MOL_PROPERTY
Idih
SciTegic.value.DoubleValue
0.000

@<SCITEGIC>MOL_PROPERTY
Tether
SciTegic.value.DoubleValue
0.000

@<TRIPOS>MOLECULE
guest-1_confgen4.mol2 : confsearch ligand conformer 140
          17          16           1
SMALL
USER_CHARGES
 
@<TRIPOS>ATOM
       1    N1      21.073068   19.540544   23.698794 N.4        1 MOL1        -0.5891
       2    H1      21.430526   20.500464   23.678142 H          1 MOL1         0.3726
       3    H2      21.873873   18.918289   23.553345 H          1 MOL1         0.3726
       4    H3      20.735000   19.370785   24.651546 H          1 MOL1         0.3726
       5    C1      19.985811   19.317163   22.666646 C.3        1 MOL1         0.0314
       6    H4      19.155363   19.989042   22.899760 H          1 MOL1         0.0999
       7    H5      19.632851   18.287618   22.768110 H          1 MOL1         0.0999
       8    C2      20.460901   19.563710   21.221841 C.3        1 MOL1        -0.1308
       9    H6      20.850295   20.587278   21.140852 H          1 MOL1         0.1025
      10    H7      21.296076   18.890047   20.988286 H          1 MOL1         0.1025
      11    C3      19.332568   19.370779   20.181817 C.3        1 MOL1        -0.1243
      12    H8      19.714713   19.638646   19.186732 H          1 MOL1         0.1025
      13    H9      18.509738   20.067847   20.394490 H          1 MOL1         0.1025
      14    C4      18.789698   17.923868   20.140627 C.3        1 MOL1        -0.2258
      15    H10     19.594234   17.205719   19.935422 H          1 MOL1         0.1036
      16    H11     18.036457   17.817764   19.349187 H          1 MOL1         0.1036
      17    H12     18.314211   17.644211   21.089202 H          1 MOL1         0.1036
@<TRIPOS>BOND
    1     1     2    1
    2     1     3    1
    3     1     4    1
    4     1     5    1
    5     5     6    1
    6     5     7    1
    7     5     8    1
    8     8     9    1
    9     8    10    1
   10     8    11    1
   11    11    12    1
   12    11    13    1
   13    11    14    1
   14    14    15    1
   15    14    16    1
   16    14    17    1
@<TRIPOS>SUBSTRUCTURE
       1 MOL1            1 RESIDUE      1      MOL     
@<SCITEGIC>MOL_PROPERTY
VConf Rank
SciTegic.value.IntegerValue
140

@<SCITEGIC>MOL_PROPERTY
Conf_Id
SciTegic.value.IntegerValue
36

@<SCITEGIC>MOL_PROPERTY
Delta U+W
SciTegic.value.DoubleValue
0.275

@<SCITEGIC>MOL_PROPERTY
U+W
SciTegic.value.DoubleValue
-15.590

@<SCITEGIC>MOL_PROPERTY
Grad RMS
SciTegic.value.DoubleValue
0.000000

@<SCITEGIC>MOL_PROPERTY
U
SciTegic.value.DoubleValue
45.174

@<SCITEGIC>MOL_PROPERTY
W
SciTegic.value.DoubleValue
-60.765

@<SCITEGIC>MOL_PROPERTY
W(PB)
SciTegic.value.DoubleValue
-62.518

@<SCITEGIC>MOL_PROPERTY
W(SA)
SciTegic.value.DoubleValue
1.754

@<SCITEGIC>MOL_PROPERTY
Valence
SciTegic.value.DoubleValue
1.161

@<SCITEGIC>MOL_PROPERTY
Coulomb
SciTegic.value.DoubleValue
43.789

@<SCITEGIC>MOL_PROPERTY
VdW
SciTegic.value.DoubleValue
0.224

@<SCITEGIC>MOL_PROPERTY
VdW6
SciTegic.value.DoubleValue
-2.897

@<SCITEGIC>MOL_PROPERTY
VdW12
SciTegic.value.DoubleValue
3.121

@<SCITEGIC>MOL_PROPERTY
Bond
SciTegic.value.DoubleValue
0.100

@<SCITEGIC>MOL_PROPERTY
Angle
SciTegic.value.DoubleValue
0.500

@<SCITEGIC>MOL_PROPERTY
Pdih
SciTegic.value.DoubleValue
0.561

@<SCITEGIC>MOL_PROPERTY
Idih
SciTegic.value.DoubleValue
0.000

@<SCITEGIC>MOL_PROPERTY
Tether
SciTegic.value.DoubleValue
0.000

@<TRIPOS>MOLECULE
guest-1_confgen4.mol2 : confsearch ligand conformer 141
          17          16           1
SMALL
USER_CHARGES
 
@<TRIPOS>ATOM
       1    N1      18.558047   17.972643   20.880356 N.4        1 MOL1        -0.5891
       2    H1      19.123408   17.421518   21.531105 H          1 MOL1         0.3726
       3    H2      18.856931   17.720560   19.933465 H          1 MOL1         0.3726
       4    H3      17.587974   17.656609   20.979872 H          1 MOL1         0.3726
       5    C1      18.695688   19.460963   21.137237 C.3        1 MOL1         0.0314
       6    H4      18.300176   19.680464   22.132572 H          1 MOL1         0.0999
       7    H5      18.066225   19.971684   20.403427 H          1 MOL1         0.0999
       8    C2      20.139048   19.994299   21.019422 C.3        1 MOL1        -0.1308
       9    H6      20.625591   19.568336   20.131976 H          1 MOL1         0.1025
      10    H7      20.082709   21.076468   20.841708 H          1 MOL1         0.1025
      11    C3      21.014462   19.762941   22.277527 C.3        1 MOL1        -0.1243
      12    H8      20.548211   20.248175   23.146538 H          1 MOL1         0.1025
      13    H9      21.977726   20.270301   22.126871 H          1 MOL1         0.1025
      14    C4      21.286632   18.276526   22.602146 C.3        1 MOL1        -0.2258
      15    H10     20.383226   17.771674   22.963611 H          1 MOL1         0.1036
      16    H11     22.041708   18.192192   23.394550 H          1 MOL1         0.1036
      17    H12     21.665438   17.739364   21.722876 H          1 MOL1         0.1036
@<TRIPOS>BOND
    1     1     2    1
    2     1     3    1
    3     1     4    1
    4     1     5    1
    5     5     6    1
    6     5     7    1
    7     5     8    1
    8     8     9    1
    9     8    10    1
   10     8    11    1
   11    11    12    1
   12    11    13    1
   13    11    14    1
   14    14    15    1
   15    14    16    1
   16    14    17    1
@<TRIPOS>SUBSTRUCTURE
       1 MOL1            1 RESIDUE      1      MOL     
@<SCITEGIC>MOL_PROPERTY
VConf Rank
SciTegic.value.IntegerValue
141

@<SCITEGIC>MOL_PROPERTY
Conf_Id
SciTegic.value.IntegerValue
19

@<SCITEGIC>MOL_PROPERTY
Delta U+W
SciTegic.value.DoubleValue
2.662

@<SCITEGIC>MOL_PROPERTY
U+W
SciTegic.value.DoubleValue
-13.203

@<SCITEGIC>MOL_PROPERTY
Grad RMS
SciTegic.value.DoubleValue
0.000000

@<SCITEGIC>MOL_PROPERTY
U
SciTegic.value.DoubleValue
47.423

@<SCITEGIC>MOL_PROPERTY
W
SciTegic.value.DoubleValue
-60.626

@<SCITEGIC>MOL_PROPERTY
W(PB)
SciTegic.value.DoubleValue
-62.328

@<SCITEGIC>MOL_PROPERTY
W(SA)
SciTegic.value.DoubleValue
1.702

@<SCITEGIC>MOL_PROPERTY
Valence
SciTegic.value.DoubleValue
2.414

@<SCITEGIC>MOL_PROPERTY
Coulomb
SciTegic.value.DoubleValue
44.831

@<SCITEGIC>MOL_PROPERTY
VdW
SciTegic.value.DoubleValue
0.178

@<SCITEGIC>MOL_PROPERTY
VdW6
SciTegic.value.DoubleValue
-3.743

@<SCITEGIC>MOL_PROPERTY
VdW12
SciTegic.value.DoubleValue
3.921

@<SCITEGIC>MOL_PROPERTY
Bond
SciTegic.value.DoubleValue
0.138

@<SCITEGIC>MOL_PROPERTY
Angle
SciTegic.value.DoubleValue
0.941

@<SCITEGIC>MOL_PROPERTY
Pdih
SciTegic.value.DoubleValue
1.335

@<SCITEGIC>MOL_PROPERTY
Idih
SciTegic.value.DoubleValue
0.000

@<SCITEGIC>MOL_PROPERTY
Tether
SciTegic.value.DoubleValue
0.000

@<TRIPOS>MOLECULE
guest-1_confgen4.mol2 : confsearch ligand conformer 142
          17          16           1
SMALL
USER_CHARGES
 
@<TRIPOS>ATOM
       1    N1      20.325469   20.752596   20.969854 N.4        1 MOL1        -0.5891
       2    H1      20.148763   21.474980   20.264334 H          1 MOL1         0.3726
       3    H2      21.181176   21.022964   21.463967 H          1 MOL1         0.3726
       4    H3      19.559802   20.798175   21.646995 H          1 MOL1         0.3726
       5    C1      20.445151   19.374363   20.348412 C.3        1 MOL1         0.0314
       6    H4      21.281244   19.412326   19.644819 H          1 MOL1         0.0999
       7    H5      19.534289   19.168592   19.779826 H          1 MOL1         0.0999
       8    C2      20.694183   18.239764   21.364423 C.3        1 MOL1        -0.1308
       9    H6      21.134157   17.393526   20.820226 H          1 MOL1         0.1025
      10    H7      21.449509   18.551517   22.097923 H          1 MOL1         0.1025
      11    C3      19.419690   17.731659   22.085673 C.3        1 MOL1        -0.1243
      12    H8      19.693193   16.862517   22.700309 H          1 MOL1         0.1025
      13    H9      18.697039   17.363724   21.343770 H          1 MOL1         0.1025
      14    C4      18.737535   18.780814   22.992766 C.3        1 MOL1        -0.2258
      15    H10     19.457090   19.237843   23.684516 H          1 MOL1         0.1036
      16    H11     17.950435   18.308794   23.595118 H          1 MOL1         0.1036
      17    H12     18.260487   19.572691   22.403670 H          1 MOL1         0.1036
@<TRIPOS>BOND
    1     1     2    1
    2     1     3    1
    3     1     4    1
    4     1     5    1
    5     5     6    1
    6     5     7    1
    7     5     8    1
    8     8     9    1
    9     8    10    1
   10     8    11    1
   11    11    12    1
   12    11    13    1
   13    11    14    1
   14    14    15    1
   15    14    16    1
   16    14    17    1
@<TRIPOS>SUBSTRUCTURE
       1 MOL1            1 RESIDUE      1      MOL     
@<SCITEGIC>MOL_PROPERTY
VConf Rank
SciTegic.value.IntegerValue
142

@<SCITEGIC>MOL_PROPERTY
Conf_Id
SciTegic.value.IntegerValue
44

@<SCITEGIC>MOL_PROPERTY
Delta U+W
SciTegic.value.DoubleValue
2.712

@<SCITEGIC>MOL_PROPERTY
U+W
SciTegic.value.DoubleValue
-13.153

@<SCITEGIC>MOL_PROPERTY
Grad RMS
SciTegic.value.DoubleValue
0.000000

@<SCITEGIC>MOL_PROPERTY
U
SciTegic.value.DoubleValue
47.423

@<SCITEGIC>MOL_PROPERTY
W
SciTegic.value.DoubleValue
-60.576

@<SCITEGIC>MOL_PROPERTY
W(PB)
SciTegic.value.DoubleValue
-62.262

@<SCITEGIC>MOL_PROPERTY
W(SA)
SciTegic.value.DoubleValue
1.687

@<SCITEGIC>MOL_PROPERTY
Valence
SciTegic.value.DoubleValue
2.414

@<SCITEGIC>MOL_PROPERTY
Coulomb
SciTegic.value.DoubleValue
44.831

@<SCITEGIC>MOL_PROPERTY
VdW
SciTegic.value.DoubleValue
0.178

@<SCITEGIC>MOL_PROPERTY
VdW6
SciTegic.value.DoubleValue
-3.743

@<SCITEGIC>MOL_PROPERTY
VdW12
SciTegic.value.DoubleValue
3.922

@<SCITEGIC>MOL_PROPERTY
Bond
SciTegic.value.DoubleValue
0.138

@<SCITEGIC>MOL_PROPERTY
Angle
SciTegic.value.DoubleValue
0.941

@<SCITEGIC>MOL_PROPERTY
Pdih
SciTegic.value.DoubleValue
1.335

@<SCITEGIC>MOL_PROPERTY
Idih
SciTegic.value.DoubleValue
0.000

@<SCITEGIC>MOL_PROPERTY
Tether
SciTegic.value.DoubleValue
0.000

@<TRIPOS>MOLECULE
guest-1_confgen4.mol2 : confsearch ligand conformer 143
          17          16           1
SMALL
USER_CHARGES
 
@<TRIPOS>ATOM
       1    N1      18.042587   19.226655   22.224077 N.4        1 MOL1        -0.5891
       2    H1      18.469654   20.156142   22.270062 H          1 MOL1         0.3726
       3    H2      17.932142   18.896127   23.187369 H          1 MOL1         0.3726
       4    H3      17.099559   19.349255   21.841540 H          1 MOL1         0.3726
       5    C1      18.870009   18.268907   21.388644 C.3        1 MOL1         0.0314
       6    H4      18.923024   18.664736   20.371141 H          1 MOL1         0.0999
       7    H5      18.338475   17.314078   21.352423 H          1 MOL1         0.0999
       8    C2      20.295302   18.039671   21.932619 C.3        1 MOL1        -0.1308
       9    H6      20.231400   17.604264   22.938645 H          1 MOL1         0.1025
      10    H7      20.793952   17.288617   21.305665 H          1 MOL1         0.1025
      11    C3      21.164690   19.320824   21.981264 C.3        1 MOL1        -0.1243
      12    H8      22.150720   19.063814   22.393083 H          1 MOL1         0.1025
      13    H9      20.726006   20.048638   22.677323 H          1 MOL1         0.1025
      14    C4      21.355152   19.976342   20.594246 C.3        1 MOL1        -0.2258
      15    H10     21.794065   19.267780   19.879850 H          1 MOL1         0.1036
      16    H11     22.028947   20.839968   20.665795 H          1 MOL1         0.1036
      17    H12     20.402959   20.332944   20.181802 H          1 MOL1         0.1036
@<TRIPOS>BOND
    1     1     2    1
    2     1     3    1
    3     1     4    1
    4     1     5    1
    5     5     6    1
    6     5     7    1
    7     5     8    1
    8     8     9    1
    9     8    10    1
   10     8    11    1
   11    11    12    1
   12    11    13    1
   13    11    14    1
   14    14    15    1
   15    14    16    1
   16    14    17    1
@<TRIPOS>SUBSTRUCTURE
       1 MOL1            1 RESIDUE      1      MOL     
@<SCITEGIC>MOL_PROPERTY
VConf Rank
SciTegic.value.IntegerValue
143

@<SCITEGIC>MOL_PROPERTY
Conf_Id
SciTegic.value.IntegerValue
1

@<SCITEGIC>MOL_PROPERTY
Delta U+W
SciTegic.value.DoubleValue
0.685

@<SCITEGIC>MOL_PROPERTY
U+W
SciTegic.value.DoubleValue
-15.179

@<SCITEGIC>MOL_PROPERTY
Grad RMS
SciTegic.value.DoubleValue
0.000000

@<SCITEGIC>MOL_PROPERTY
U
SciTegic.value.DoubleValue
45.697

@<SCITEGIC>MOL_PROPERTY
W
SciTegic.value.DoubleValue
-60.876

@<SCITEGIC>MOL_PROPERTY
W(PB)
SciTegic.value.DoubleValue
-62.586

@<SCITEGIC>MOL_PROPERTY
W(SA)
SciTegic.value.DoubleValue
1.710

@<SCITEGIC>MOL_PROPERTY
Valence
SciTegic.value.DoubleValue
1.263

@<SCITEGIC>MOL_PROPERTY
Coulomb
SciTegic.value.DoubleValue
44.179

@<SCITEGIC>MOL_PROPERTY
VdW
SciTegic.value.DoubleValue
0.255

@<SCITEGIC>MOL_PROPERTY
VdW6
SciTegic.value.DoubleValue
-3.552

@<SCITEGIC>MOL_PROPERTY
VdW12
SciTegic.value.DoubleValue
3.807

@<SCITEGIC>MOL_PROPERTY
Bond
SciTegic.value.DoubleValue
0.125

@<SCITEGIC>MOL_PROPERTY
Angle
SciTegic.value.DoubleValue
0.616

@<SCITEGIC>MOL_PROPERTY
Pdih
SciTegic.value.DoubleValue
0.521

@<SCITEGIC>MOL_PROPERTY
Idih
SciTegic.value.DoubleValue
0.000

@<SCITEGIC>MOL_PROPERTY
Tether
SciTegic.value.DoubleValue
0.000

@<TRIPOS>MOLECULE
guest-1_confgen4.mol2 : confsearch ligand conformer 144
          17          16           1
SMALL
USER_CHARGES
 
@<TRIPOS>ATOM
       1    N1      21.492407   19.615523   22.670588 N.4        1 MOL1        -0.5891
       2    H1      22.020906   18.815866   23.031995 H          1 MOL1         0.3726
       3    H2      20.664721   19.724256   23.263515 H          1 MOL1         0.3726
       4    H3      22.074787   20.446675   22.814417 H          1 MOL1         0.3726
       5    C1      21.118750   19.434178   21.212044 C.3        1 MOL1         0.0314
       6    H4      22.046078   19.362882   20.637137 H          1 MOL1         0.0999
       7    H5      20.586130   20.330593   20.884077 H          1 MOL1         0.0999
       8    C2      20.252907   18.186363   20.941500 C.3        1 MOL1        -0.1308
       9    H6      20.087309   18.101677   19.859276 H          1 MOL1         0.1025
      10    H7      20.812406   17.288671   21.236219 H          1 MOL1         0.1025
      11    C3      18.884107   18.200051   21.666591 C.3        1 MOL1        -0.1243
      12    H8      19.033206   18.191883   22.754873 H          1 MOL1         0.1025
      13    H9      18.347638   17.271190   21.427170 H          1 MOL1         0.1025
      14    C4      18.001406   19.405952   21.271069 C.3        1 MOL1        -0.2258
      15    H10     17.019271   19.339973   21.756893 H          1 MOL1         0.1036
      16    H11     17.836743   19.435422   20.186133 H          1 MOL1         0.1036
      17    H12     18.457216   20.356884   21.574243 H          1 MOL1         0.1036
@<TRIPOS>BOND
    1     1     2    1
    2     1     3    1
    3     1     4    1
    4     1     5    1
    5     5     6    1
    6     5     7    1
    7     5     8    1
    8     8     9    1
    9     8    10    1
   10     8    11    1
   11    11    12    1
   12    11    13    1
   13    11    14    1
   14    14    15    1
   15    14    16    1
   16    14    17    1
@<TRIPOS>SUBSTRUCTURE
       1 MOL1            1 RESIDUE      1      MOL     
@<SCITEGIC>MOL_PROPERTY
VConf Rank
SciTegic.value.IntegerValue
144

@<SCITEGIC>MOL_PROPERTY
Conf_Id
SciTegic.value.IntegerValue
43

@<SCITEGIC>MOL_PROPERTY
Delta U+W
SciTegic.value.DoubleValue
0.642

@<SCITEGIC>MOL_PROPERTY
U+W
SciTegic.value.DoubleValue
-15.222

@<SCITEGIC>MOL_PROPERTY
Grad RMS
SciTegic.value.DoubleValue
0.000000

@<SCITEGIC>MOL_PROPERTY
U
SciTegic.value.DoubleValue
45.697

@<SCITEGIC>MOL_PROPERTY
W
SciTegic.value.DoubleValue
-60.919

@<SCITEGIC>MOL_PROPERTY
W(PB)
SciTegic.value.DoubleValue
-62.631

@<SCITEGIC>MOL_PROPERTY
W(SA)
SciTegic.value.DoubleValue
1.712

@<SCITEGIC>MOL_PROPERTY
Valence
SciTegic.value.DoubleValue
1.262

@<SCITEGIC>MOL_PROPERTY
Coulomb
SciTegic.value.DoubleValue
44.179

@<SCITEGIC>MOL_PROPERTY
VdW
SciTegic.value.DoubleValue
0.255

@<SCITEGIC>MOL_PROPERTY
VdW6
SciTegic.value.DoubleValue
-3.552

@<SCITEGIC>MOL_PROPERTY
VdW12
SciTegic.value.DoubleValue
3.807

@<SCITEGIC>MOL_PROPERTY
Bond
SciTegic.value.DoubleValue
0.125

@<SCITEGIC>MOL_PROPERTY
Angle
SciTegic.value.DoubleValue
0.616

@<SCITEGIC>MOL_PROPERTY
Pdih
SciTegic.value.DoubleValue
0.521

@<SCITEGIC>MOL_PROPERTY
Idih
SciTegic.value.DoubleValue
0.000

@<SCITEGIC>MOL_PROPERTY
Tether
SciTegic.value.DoubleValue
0.000

@<TRIPOS>MOLECULE
guest-1_confgen4.mol2 : confsearch ligand conformer 145
          17          16           1
SMALL
USER_CHARGES
 
@<TRIPOS>ATOM
       1    N1      21.319629   21.047126   22.488417 N.4        1 MOL1        -0.5891
       2    H1      22.072958   21.010747   21.794971 H          1 MOL1         0.3726
       3    H2      21.671841   20.597372   23.338926 H          1 MOL1         0.3726
       4    H3      21.173255   22.036098   22.715173 H          1 MOL1         0.3726
       5    C1      20.050242   20.390983   21.982958 C.3        1 MOL1         0.0314
       6    H4      19.716770   20.938597   21.097273 H          1 MOL1         0.0999
       7    H5      19.285419   20.494124   22.757511 H          1 MOL1         0.0999
       8    C2      20.234390   18.903190   21.632498 C.3        1 MOL1        -0.1308
       9    H6      21.013971   18.802293   20.865644 H          1 MOL1         0.1025
      10    H7      20.583957   18.359328   22.520196 H          1 MOL1         0.1025
      11    C3      18.919365   18.273986   21.122271 C.3        1 MOL1        -0.1243
      12    H8      18.567189   18.820052   20.235642 H          1 MOL1         0.1025
      13    H9      18.137722   18.377556   21.888191 H          1 MOL1         0.1025
      14    C4      19.096426   16.781488   20.768641 C.3        1 MOL1        -0.2258
      15    H10     18.151857   16.353518   20.408529 H          1 MOL1         0.1036
      16    H11     19.415256   16.202598   21.645248 H          1 MOL1         0.1036
      17    H12     19.848162   16.648590   19.979693 H          1 MOL1         0.1036
@<TRIPOS>BOND
    1     1     2    1
    2     1     3    1
    3     1     4    1
    4     1     5    1
    5     5     6    1
    6     5     7    1
    7     5     8    1
    8     8     9    1
    9     8    10    1
   10     8    11    1
   11    11    12    1
   12    11    13    1
   13    11    14    1
   14    14    15    1
   15    14    16    1
   16    14    17    1
@<TRIPOS>SUBSTRUCTURE
       1 MOL1            1 RESIDUE      1      MOL     
@<SCITEGIC>MOL_PROPERTY
VConf Rank
SciTegic.value.IntegerValue
145

@<SCITEGIC>MOL_PROPERTY
Conf_Id
SciTegic.value.IntegerValue
7

@<SCITEGIC>MOL_PROPERTY
Delta U+W
SciTegic.value.DoubleValue
0.000

@<SCITEGIC>MOL_PROPERTY
U+W
SciTegic.value.DoubleValue
-15.865

@<SCITEGIC>MOL_PROPERTY
Grad RMS
SciTegic.value.DoubleValue
0.000000

@<SCITEGIC>MOL_PROPERTY
U
SciTegic.value.DoubleValue
44.664

@<SCITEGIC>MOL_PROPERTY
W
SciTegic.value.DoubleValue
-60.529

@<SCITEGIC>MOL_PROPERTY
W(PB)
SciTegic.value.DoubleValue
-62.309

@<SCITEGIC>MOL_PROPERTY
W(SA)
SciTegic.value.DoubleValue
1.780

@<SCITEGIC>MOL_PROPERTY
Valence
SciTegic.value.DoubleValue
0.872

@<SCITEGIC>MOL_PROPERTY
Coulomb
SciTegic.value.DoubleValue
43.648

@<SCITEGIC>MOL_PROPERTY
VdW
SciTegic.value.DoubleValue
0.144

@<SCITEGIC>MOL_PROPERTY
VdW6
SciTegic.value.DoubleValue
-2.370

@<SCITEGIC>MOL_PROPERTY
VdW12
SciTegic.value.DoubleValue
2.515

@<SCITEGIC>MOL_PROPERTY
Bond
SciTegic.value.DoubleValue
0.080

@<SCITEGIC>MOL_PROPERTY
Angle
SciTegic.value.DoubleValue
0.376

@<SCITEGIC>MOL_PROPERTY
Pdih
SciTegic.value.DoubleValue
0.416

@<SCITEGIC>MOL_PROPERTY
Idih
SciTegic.value.DoubleValue
0.000

@<SCITEGIC>MOL_PROPERTY
Tether
SciTegic.value.DoubleValue
0.000

@<TRIPOS>MOLECULE
guest-1_confgen4.mol2 : confsearch ligand conformer 146
          17          16           1
SMALL
USER_CHARGES
 
@<TRIPOS>ATOM
       1    N1      22.053021   19.573460   22.662596 N.4        1 MOL1        -0.5891
       2    H1      22.785741   19.057458   22.166098 H          1 MOL1         0.3726
       3    H2      21.887722   19.084295   23.547492 H          1 MOL1         0.3726
       4    H3      22.445203   20.490450   22.899593 H          1 MOL1         0.3726
       5    C1      20.787547   19.697679   21.837671 C.3        1 MOL1         0.0314
       6    H4      21.030480   20.252950   20.927689 H          1 MOL1         0.0999
       7    H5      20.066770   20.283013   22.414474 H          1 MOL1         0.0999
       8    C2      20.170866   18.336092   21.463850 C.3        1 MOL1        -0.1308
       9    H6      20.916194   17.740717   20.919891 H          1 MOL1         0.1025
      10    H7      19.928421   17.777713   22.377809 H          1 MOL1         0.1025
      11    C3      18.902732   18.475532   20.589550 C.3        1 MOL1        -0.1243
      12    H8      18.561672   17.473663   20.293041 H          1 MOL1         0.1025
      13    H9      19.150924   19.005179   19.658928 H          1 MOL1         0.1025
      14    C4      17.748463   19.207772   21.311661 C.3        1 MOL1        -0.2258
      15    H10     17.484649   18.701406   22.249276 H          1 MOL1         0.1036
      16    H11     16.851409   19.229883   20.679353 H          1 MOL1         0.1036
      17    H12     18.013569   20.246510   21.545827 H          1 MOL1         0.1036
@<TRIPOS>BOND
    1     1     2    1
    2     1     3    1
    3     1     4    1
    4     1     5    1
    5     5     6    1
    6     5     7    1
    7     5     8    1
    8     8     9    1
    9     8    10    1
   10     8    11    1
   11    11    12    1
   12    11    13    1
   13    11    14    1
   14    14    15    1
   15    14    16    1
   16    14    17    1
@<TRIPOS>SUBSTRUCTURE
       1 MOL1            1 RESIDUE      1      MOL     
@<SCITEGIC>MOL_PROPERTY
VConf Rank
SciTegic.value.IntegerValue
146

@<SCITEGIC>MOL_PROPERTY
Conf_Id
SciTegic.value.IntegerValue
36

@<SCITEGIC>MOL_PROPERTY
Delta U+W
SciTegic.value.DoubleValue
0.275

@<SCITEGIC>MOL_PROPERTY
U+W
SciTegic.value.DoubleValue
-15.590

@<SCITEGIC>MOL_PROPERTY
Grad RMS
SciTegic.value.DoubleValue
0.000000

@<SCITEGIC>MOL_PROPERTY
U
SciTegic.value.DoubleValue
45.174

@<SCITEGIC>MOL_PROPERTY
W
SciTegic.value.DoubleValue
-60.765

@<SCITEGIC>MOL_PROPERTY
W(PB)
SciTegic.value.DoubleValue
-62.518

@<SCITEGIC>MOL_PROPERTY
W(SA)
SciTegic.value.DoubleValue
1.754

@<SCITEGIC>MOL_PROPERTY
Valence
SciTegic.value.DoubleValue
1.161

@<SCITEGIC>MOL_PROPERTY
Coulomb
SciTegic.value.DoubleValue
43.789

@<SCITEGIC>MOL_PROPERTY
VdW
SciTegic.value.DoubleValue
0.224

@<SCITEGIC>MOL_PROPERTY
VdW6
SciTegic.value.DoubleValue
-2.897

@<SCITEGIC>MOL_PROPERTY
VdW12
SciTegic.value.DoubleValue
3.121

@<SCITEGIC>MOL_PROPERTY
Bond
SciTegic.value.DoubleValue
0.100

@<SCITEGIC>MOL_PROPERTY
Angle
SciTegic.value.DoubleValue
0.500

@<SCITEGIC>MOL_PROPERTY
Pdih
SciTegic.value.DoubleValue
0.561

@<SCITEGIC>MOL_PROPERTY
Idih
SciTegic.value.DoubleValue
0.000

@<SCITEGIC>MOL_PROPERTY
Tether
SciTegic.value.DoubleValue
0.000

@<TRIPOS>MOLECULE
guest-1_confgen4.mol2 : confsearch ligand conformer 147
          17          16           1
SMALL
USER_CHARGES
 
@<TRIPOS>ATOM
       1    N1      19.088868   20.360138   20.680215 N.4        1 MOL1        -0.5891
       2    H1      19.582597   20.714966   21.503121 H          1 MOL1         0.3726
       3    H2      18.096999   20.296026   20.928338 H          1 MOL1         0.3726
       4    H3      19.166832   21.074593   19.949258 H          1 MOL1         0.3726
       5    C1      19.643269   19.024063   20.224615 C.3        1 MOL1         0.0314
       6    H4      20.680315   19.166792   19.909231 H          1 MOL1         0.0999
       7    H5      19.063060   18.718701   19.349601 H          1 MOL1         0.0999
       8    C2      19.569969   17.910142   21.290175 C.3        1 MOL1        -0.1308
       9    H6      18.590932   17.929476   21.787007 H          1 MOL1         0.1025
      10    H7      19.624525   16.944750   20.769706 H          1 MOL1         0.1025
      11    C3      20.708739   17.949973   22.341042 C.3        1 MOL1        -0.1243
      12    H8      21.681141   17.866241   21.835626 H          1 MOL1         0.1025
      13    H9      20.621004   17.060168   22.980213 H          1 MOL1         0.1025
      14    C4      20.703107   19.205693   23.242162 C.3        1 MOL1        -0.2258
      15    H10     20.994424   20.102930   22.683792 H          1 MOL1         0.1036
      16    H11     21.423354   19.088679   24.062350 H          1 MOL1         0.1036
      17    H12     19.714064   19.371386   23.688809 H          1 MOL1         0.1036
@<TRIPOS>BOND
    1     1     2    1
    2     1     3    1
    3     1     4    1
    4     1     5    1
    5     5     6    1
    6     5     7    1
    7     5     8    1
    8     8     9    1
    9     8    10    1
   10     8    11    1
   11    11    12    1
   12    11    13    1
   13    11    14    1
   14    14    15    1
   15    14    16    1
   16    14    17    1
@<TRIPOS>SUBSTRUCTURE
       1 MOL1            1 RESIDUE      1      MOL     
@<SCITEGIC>MOL_PROPERTY
VConf Rank
SciTegic.value.IntegerValue
147

@<SCITEGIC>MOL_PROPERTY
Conf_Id
SciTegic.value.IntegerValue
19

@<SCITEGIC>MOL_PROPERTY
Delta U+W
SciTegic.value.DoubleValue
2.662

@<SCITEGIC>MOL_PROPERTY
U+W
SciTegic.value.DoubleValue
-13.203

@<SCITEGIC>MOL_PROPERTY
Grad RMS
SciTegic.value.DoubleValue
0.000000

@<SCITEGIC>MOL_PROPERTY
U
SciTegic.value.DoubleValue
47.423

@<SCITEGIC>MOL_PROPERTY
W
SciTegic.value.DoubleValue
-60.626

@<SCITEGIC>MOL_PROPERTY
W(PB)
SciTegic.value.DoubleValue
-62.328

@<SCITEGIC>MOL_PROPERTY
W(SA)
SciTegic.value.DoubleValue
1.702

@<SCITEGIC>MOL_PROPERTY
Valence
SciTegic.value.DoubleValue
2.414

@<SCITEGIC>MOL_PROPERTY
Coulomb
SciTegic.value.DoubleValue
44.831

@<SCITEGIC>MOL_PROPERTY
VdW
SciTegic.value.DoubleValue
0.178

@<SCITEGIC>MOL_PROPERTY
VdW6
SciTegic.value.DoubleValue
-3.743

@<SCITEGIC>MOL_PROPERTY
VdW12
SciTegic.value.DoubleValue
3.921

@<SCITEGIC>MOL_PROPERTY
Bond
SciTegic.value.DoubleValue
0.138

@<SCITEGIC>MOL_PROPERTY
Angle
SciTegic.value.DoubleValue
0.941

@<SCITEGIC>MOL_PROPERTY
Pdih
SciTegic.value.DoubleValue
1.335

@<SCITEGIC>MOL_PROPERTY
Idih
SciTegic.value.DoubleValue
0.000

@<SCITEGIC>MOL_PROPERTY
Tether
SciTegic.value.DoubleValue
0.000

@<TRIPOS>MOLECULE
guest-1_confgen4.mol2 : confsearch ligand conformer 148
          17          16           1
SMALL
USER_CHARGES
 
@<TRIPOS>ATOM
       1    N1      18.965927   20.668231   21.407463 N.4        1 MOL1        -0.5891
       2    H1      18.052699   21.127135   21.328436 H          1 MOL1         0.3726
       3    H2      19.672507   21.368816   21.163729 H          1 MOL1         0.3726
       4    H3      19.101922   20.434327   22.394194 H          1 MOL1         0.3726
       5    C1      19.059451   19.441423   20.520764 C.3        1 MOL1         0.0314
       6    H4      18.905828   19.778043   19.491869 H          1 MOL1         0.0999
       7    H5      18.242893   18.761957   20.779337 H          1 MOL1         0.0999
       8    C2      20.407579   18.695606   20.609749 C.3        1 MOL1        -0.1308
       9    H6      20.518187   18.093817   19.697903 H          1 MOL1         0.1025
      10    H7      21.236604   19.415540   20.597807 H          1 MOL1         0.1025
      11    C3      20.536870   17.744582   21.826934 C.3        1 MOL1        -0.1243
      12    H8      21.482117   17.191378   21.734936 H          1 MOL1         0.1025
      13    H9      19.738621   16.989833   21.792664 H          1 MOL1         0.1025
      14    C4      20.514483   18.455931   23.198925 C.3        1 MOL1        -0.2258
      15    H10     21.238197   19.280724   23.232171 H          1 MOL1         0.1036
      16    H11     20.777156   17.750215   23.997752 H          1 MOL1         0.1036
      17    H12     19.518170   18.849290   23.431971 H          1 MOL1         0.1036
@<TRIPOS>BOND
    1     1     2    1
    2     1     3    1
    3     1     4    1
    4     1     5    1
    5     5     6    1
    6     5     7    1
    7     5     8    1
    8     8     9    1
    9     8    10    1
   10     8    11    1
   11    11    12    1
   12    11    13    1
   13    11    14    1
   14    14    15    1
   15    14    16    1
   16    14    17    1
@<TRIPOS>SUBSTRUCTURE
       1 MOL1            1 RESIDUE      1      MOL     
@<SCITEGIC>MOL_PROPERTY
VConf Rank
SciTegic.value.IntegerValue
148

@<SCITEGIC>MOL_PROPERTY
Conf_Id
SciTegic.value.IntegerValue
44

@<SCITEGIC>MOL_PROPERTY
Delta U+W
SciTegic.value.DoubleValue
2.712

@<SCITEGIC>MOL_PROPERTY
U+W
SciTegic.value.DoubleValue
-13.153

@<SCITEGIC>MOL_PROPERTY
Grad RMS
SciTegic.value.DoubleValue
0.000000

@<SCITEGIC>MOL_PROPERTY
U
SciTegic.value.DoubleValue
47.423

@<SCITEGIC>MOL_PROPERTY
W
SciTegic.value.DoubleValue
-60.576

@<SCITEGIC>MOL_PROPERTY
W(PB)
SciTegic.value.DoubleValue
-62.262

@<SCITEGIC>MOL_PROPERTY
W(SA)
SciTegic.value.DoubleValue
1.687

@<SCITEGIC>MOL_PROPERTY
Valence
SciTegic.value.DoubleValue
2.414

@<SCITEGIC>MOL_PROPERTY
Coulomb
SciTegic.value.DoubleValue
44.831

@<SCITEGIC>MOL_PROPERTY
VdW
SciTegic.value.DoubleValue
0.178

@<SCITEGIC>MOL_PROPERTY
VdW6
SciTegic.value.DoubleValue
-3.743

@<SCITEGIC>MOL_PROPERTY
VdW12
SciTegic.value.DoubleValue
3.922

@<SCITEGIC>MOL_PROPERTY
Bond
SciTegic.value.DoubleValue
0.138

@<SCITEGIC>MOL_PROPERTY
Angle
SciTegic.value.DoubleValue
0.941

@<SCITEGIC>MOL_PROPERTY
Pdih
SciTegic.value.DoubleValue
1.335

@<SCITEGIC>MOL_PROPERTY
Idih
SciTegic.value.DoubleValue
0.000

@<SCITEGIC>MOL_PROPERTY
Tether
SciTegic.value.DoubleValue
0.000

@<TRIPOS>MOLECULE
guest-1_confgen4.mol2 : confsearch ligand conformer 149
          17          16           1
SMALL
USER_CHARGES
 
@<TRIPOS>ATOM
       1    N1      20.520422   18.482383   19.789663 N.4        1 MOL1        -0.5891
       2    H1      21.300073   18.983169   20.225328 H          1 MOL1         0.3726
       3    H2      20.137341   19.092873   19.061699 H          1 MOL1         0.3726
       4    H3      20.917616   17.665620   19.314476 H          1 MOL1         0.3726
       5    C1      19.468208   18.086367   20.807443 C.3        1 MOL1         0.0314
       6    H4      19.934094   17.415526   21.533891 H          1 MOL1         0.0999
       7    H5      18.690063   17.526697   20.281327 H          1 MOL1         0.0999
       8    C2      18.828960   19.283870   21.540429 C.3        1 MOL1        -0.1308
       9    H6      18.328929   19.930189   20.806952 H          1 MOL1         0.1025
      10    H7      18.039656   18.908209   22.205021 H          1 MOL1         0.1025
      11    C3      19.832938   20.125428   22.367088 C.3        1 MOL1        -0.1243
      12    H8      19.292610   20.958567   22.838077 H          1 MOL1         0.1025
      13    H9      20.577782   20.584363   21.702830 H          1 MOL1         0.1025
      14    C4      20.549152   19.306605   23.465435 C.3        1 MOL1        -0.2258
      15    H10     19.824541   18.837990   24.143968 H          1 MOL1         0.1036
      16    H11     21.199639   19.955029   24.066585 H          1 MOL1         0.1036
      17    H12     21.176617   18.515877   23.035337 H          1 MOL1         0.1036
@<TRIPOS>BOND
    1     1     2    1
    2     1     3    1
    3     1     4    1
    4     1     5    1
    5     5     6    1
    6     5     7    1
    7     5     8    1
    8     8     9    1
    9     8    10    1
   10     8    11    1
   11    11    12    1
   12    11    13    1
   13    11    14    1
   14    14    15    1
   15    14    16    1
   16    14    17    1
@<TRIPOS>SUBSTRUCTURE
       1 MOL1            1 RESIDUE      1      MOL     
@<SCITEGIC>MOL_PROPERTY
VConf Rank
SciTegic.value.IntegerValue
149

@<SCITEGIC>MOL_PROPERTY
Conf_Id
SciTegic.value.IntegerValue
1

@<SCITEGIC>MOL_PROPERTY
Delta U+W
SciTegic.value.DoubleValue
0.685

@<SCITEGIC>MOL_PROPERTY
U+W
SciTegic.value.DoubleValue
-15.179

@<SCITEGIC>MOL_PROPERTY
Grad RMS
SciTegic.value.DoubleValue
0.000000

@<SCITEGIC>MOL_PROPERTY
U
SciTegic.value.DoubleValue
45.697

@<SCITEGIC>MOL_PROPERTY
W
SciTegic.value.DoubleValue
-60.876

@<SCITEGIC>MOL_PROPERTY
W(PB)
SciTegic.value.DoubleValue
-62.586

@<SCITEGIC>MOL_PROPERTY
W(SA)
SciTegic.value.DoubleValue
1.710

@<SCITEGIC>MOL_PROPERTY
Valence
SciTegic.value.DoubleValue
1.263

@<SCITEGIC>MOL_PROPERTY
Coulomb
SciTegic.value.DoubleValue
44.179

@<SCITEGIC>MOL_PROPERTY
VdW
SciTegic.value.DoubleValue
0.255

@<SCITEGIC>MOL_PROPERTY
VdW6
SciTegic.value.DoubleValue
-3.552

@<SCITEGIC>MOL_PROPERTY
VdW12
SciTegic.value.DoubleValue
3.807

@<SCITEGIC>MOL_PROPERTY
Bond
SciTegic.value.DoubleValue
0.125

@<SCITEGIC>MOL_PROPERTY
Angle
SciTegic.value.DoubleValue
0.616

@<SCITEGIC>MOL_PROPERTY
Pdih
SciTegic.value.DoubleValue
0.521

@<SCITEGIC>MOL_PROPERTY
Idih
SciTegic.value.DoubleValue
0.000

@<SCITEGIC>MOL_PROPERTY
Tether
SciTegic.value.DoubleValue
0.000

@<TRIPOS>MOLECULE
guest-1_confgen4.mol2 : confsearch ligand conformer 150
          17          16           1
SMALL
USER_CHARGES
 
@<TRIPOS>ATOM
       1    N1      18.665867   17.524057   21.297859 N.4        1 MOL1        -0.5891
       2    H1      19.071452   16.811714   20.683493 H          1 MOL1         0.3726
       3    H2      18.358041   18.297887   20.702141 H          1 MOL1         0.3726
       4    H3      17.823869   17.113636   21.714107 H          1 MOL1         0.3726
       5    C1      19.649951   17.986099   22.355192 C.3        1 MOL1         0.0314
       6    H4      19.904529   17.121185   22.973780 H          1 MOL1         0.0999
       7    H5      19.146252   18.719192   22.990541 H          1 MOL1         0.0999
       8    C2      20.942454   18.599057   21.777576 C.3        1 MOL1        -0.1308
       9    H6      21.617263   18.843318   22.608703 H          1 MOL1         0.1025
      10    H7      21.461820   17.842593   21.174443 H          1 MOL1         0.1025
      11    C3      20.709552   19.868408   20.920802 C.3        1 MOL1        -0.1243
      12    H8      20.110856   19.620629   20.033772 H          1 MOL1         0.1025
      13    H9      21.678802   20.222924   20.542945 H          1 MOL1         0.1025
      14    C4      20.027907   21.012304   21.706079 C.3        1 MOL1        -0.2258
      15    H10     19.942506   21.910737   21.081185 H          1 MOL1         0.1036
      16    H11     20.608985   21.279304   22.598338 H          1 MOL1         0.1036
      17    H12     19.015880   20.734997   22.026784 H          1 MOL1         0.1036
@<TRIPOS>BOND
    1     1     2    1
    2     1     3    1
    3     1     4    1
    4     1     5    1
    5     5     6    1
    6     5     7    1
    7     5     8    1
    8     8     9    1
    9     8    10    1
   10     8    11    1
   11    11    12    1
   12    11    13    1
   13    11    14    1
   14    14    15    1
   15    14    16    1
   16    14    17    1
@<TRIPOS>SUBSTRUCTURE
       1 MOL1            1 RESIDUE      1      MOL     
@<SCITEGIC>MOL_PROPERTY
VConf Rank
SciTegic.value.IntegerValue
150

@<SCITEGIC>MOL_PROPERTY
Conf_Id
SciTegic.value.IntegerValue
43

@<SCITEGIC>MOL_PROPERTY
Delta U+W
SciTegic.value.DoubleValue
0.642

@<SCITEGIC>MOL_PROPERTY
U+W
SciTegic.value.DoubleValue
-15.222

@<SCITEGIC>MOL_PROPERTY
Grad RMS
SciTegic.value.DoubleValue
0.000000

@<SCITEGIC>MOL_PROPERTY
U
SciTegic.value.DoubleValue
45.697

@<SCITEGIC>MOL_PROPERTY
W
SciTegic.value.DoubleValue
-60.919

@<SCITEGIC>MOL_PROPERTY
W(PB)
SciTegic.value.DoubleValue
-62.631

@<SCITEGIC>MOL_PROPERTY
W(SA)
SciTegic.value.DoubleValue
1.712

@<SCITEGIC>MOL_PROPERTY
Valence
SciTegic.value.DoubleValue
1.262

@<SCITEGIC>MOL_PROPERTY
Coulomb
SciTegic.value.DoubleValue
44.179

@<SCITEGIC>MOL_PROPERTY
VdW
SciTegic.value.DoubleValue
0.255

@<SCITEGIC>MOL_PROPERTY
VdW6
SciTegic.value.DoubleValue
-3.552

@<SCITEGIC>MOL_PROPERTY
VdW12
SciTegic.value.DoubleValue
3.807

@<SCITEGIC>MOL_PROPERTY
Bond
SciTegic.value.DoubleValue
0.125

@<SCITEGIC>MOL_PROPERTY
Angle
SciTegic.value.DoubleValue
0.616

@<SCITEGIC>MOL_PROPERTY
Pdih
SciTegic.value.DoubleValue
0.521

@<SCITEGIC>MOL_PROPERTY
Idih
SciTegic.value.DoubleValue
0.000

@<SCITEGIC>MOL_PROPERTY
Tether
SciTegic.value.DoubleValue
0.000

@<TRIPOS>MOLECULE
guest-1_confgen4.mol2 : confsearch ligand conformer 151
          17          16           1
SMALL
USER_CHARGES
 
@<TRIPOS>ATOM
       1    N1      21.927208   19.314855   19.977856 N.4        1 MOL1        -0.5891
       2    H1      22.519094   18.576782   20.371068 H          1 MOL1         0.3726
       3    H2      22.280811   20.206999   20.336661 H          1 MOL1         0.3726
       4    H3      22.089874   19.317267   18.965709 H          1 MOL1         0.3726
       5    C1      20.463549   19.107989   20.312916 C.3        1 MOL1         0.0314
       6    H4      20.148143   18.157019   19.875082 H          1 MOL1         0.0999
       7    H5      19.891900   19.910010   19.838043 H          1 MOL1         0.0999
       8    C2      20.183071   19.098977   21.826691 C.3        1 MOL1        -0.1308
       9    H6      20.770595   18.302384   22.302344 H          1 MOL1         0.1025
      10    H7      20.515093   20.049389   22.265404 H          1 MOL1         0.1025
      11    C3      18.682500   18.885800   22.123948 C.3        1 MOL1        -0.1243
      12    H8      18.348765   17.936169   21.682192 H          1 MOL1         0.1025
      13    H9      18.093579   19.681071   21.645366 H          1 MOL1         0.1025
      14    C4      18.393514   18.875540   23.640635 C.3        1 MOL1        -0.2258
      15    H10     17.323129   18.722969   23.830493 H          1 MOL1         0.1036
      16    H11     18.685164   19.826536   24.105127 H          1 MOL1         0.1036
      17    H12     18.942419   18.067891   24.142247 H          1 MOL1         0.1036
@<TRIPOS>BOND
    1     1     2    1
    2     1     3    1
    3     1     4    1
    4     1     5    1
    5     5     6    1
    6     5     7    1
    7     5     8    1
    8     8     9    1
    9     8    10    1
   10     8    11    1
   11    11    12    1
   12    11    13    1
   13    11    14    1
   14    14    15    1
   15    14    16    1
   16    14    17    1
@<TRIPOS>SUBSTRUCTURE
       1 MOL1            1 RESIDUE      1      MOL     
@<SCITEGIC>MOL_PROPERTY
VConf Rank
SciTegic.value.IntegerValue
151

@<SCITEGIC>MOL_PROPERTY
Conf_Id
SciTegic.value.IntegerValue
7

@<SCITEGIC>MOL_PROPERTY
Delta U+W
SciTegic.value.DoubleValue
0.000

@<SCITEGIC>MOL_PROPERTY
U+W
SciTegic.value.DoubleValue
-15.865

@<SCITEGIC>MOL_PROPERTY
Grad RMS
SciTegic.value.DoubleValue
0.000000

@<SCITEGIC>MOL_PROPERTY
U
SciTegic.value.DoubleValue
44.664

@<SCITEGIC>MOL_PROPERTY
W
SciTegic.value.DoubleValue
-60.529

@<SCITEGIC>MOL_PROPERTY
W(PB)
SciTegic.value.DoubleValue
-62.309

@<SCITEGIC>MOL_PROPERTY
W(SA)
SciTegic.value.DoubleValue
1.780

@<SCITEGIC>MOL_PROPERTY
Valence
SciTegic.value.DoubleValue
0.872

@<SCITEGIC>MOL_PROPERTY
Coulomb
SciTegic.value.DoubleValue
43.648

@<SCITEGIC>MOL_PROPERTY
VdW
SciTegic.value.DoubleValue
0.144

@<SCITEGIC>MOL_PROPERTY
VdW6
SciTegic.value.DoubleValue
-2.370

@<SCITEGIC>MOL_PROPERTY
VdW12
SciTegic.value.DoubleValue
2.515

@<SCITEGIC>MOL_PROPERTY
Bond
SciTegic.value.DoubleValue
0.080

@<SCITEGIC>MOL_PROPERTY
Angle
SciTegic.value.DoubleValue
0.376

@<SCITEGIC>MOL_PROPERTY
Pdih
SciTegic.value.DoubleValue
0.416

@<SCITEGIC>MOL_PROPERTY
Idih
SciTegic.value.DoubleValue
0.000

@<SCITEGIC>MOL_PROPERTY
Tether
SciTegic.value.DoubleValue
0.000

@<TRIPOS>MOLECULE
guest-1_confgen4.mol2 : confsearch ligand conformer 152
          17          16           1
SMALL
USER_CHARGES
 
@<TRIPOS>ATOM
       1    N1      21.526717   20.292942   22.977155 N.4        1 MOL1        -0.5891
       2    H1      21.019974   20.810942   23.701403 H          1 MOL1         0.3726
       3    H2      21.825230   20.974697   22.273063 H          1 MOL1         0.3726
       4    H3      22.378229   19.927308   23.415428 H          1 MOL1         0.3726
       5    C1      20.683265   19.187047   22.374710 C.3        1 MOL1         0.0314
       6    H4      20.427568   18.484362   23.172370 H          1 MOL1         0.0999
       7    H5      21.295711   18.661165   21.637691 H          1 MOL1         0.0999
       8    C2      19.394222   19.702623   21.706496 C.3        1 MOL1        -0.1308
       9    H6      18.805669   20.263286   22.444832 H          1 MOL1         0.1025
      10    H7      19.650995   20.409657   20.906460 H          1 MOL1         0.1025
      11    C3      18.523510   18.561559   21.130443 C.3        1 MOL1        -0.1243
      12    H8      17.587512   18.987704   20.742770 H          1 MOL1         0.1025
      13    H9      18.237798   17.870801   21.936299 H          1 MOL1         0.1025
      14    C4      19.226808   17.777012   19.999154 C.3        1 MOL1        -0.2258
      15    H10     19.528447   18.446082   19.182769 H          1 MOL1         0.1036
      16    H11     18.552368   17.019531   19.579201 H          1 MOL1         0.1036
      17    H12     20.121357   17.257054   20.364553 H          1 MOL1         0.1036
@<TRIPOS>BOND
    1     1     2    1
    2     1     3    1
    3     1     4    1
    4     1     5    1
    5     5     6    1
    6     5     7    1
    7     5     8    1
    8     8     9    1
    9     8    10    1
   10     8    11    1
   11    11    12    1
   12    11    13    1
   13    11    14    1
   14    14    15    1
   15    14    16    1
   16    14    17    1
@<TRIPOS>SUBSTRUCTURE
       1 MOL1            1 RESIDUE      1      MOL     
@<SCITEGIC>MOL_PROPERTY
VConf Rank
SciTegic.value.IntegerValue
152

@<SCITEGIC>MOL_PROPERTY
Conf_Id
SciTegic.value.IntegerValue
36

@<SCITEGIC>MOL_PROPERTY
Delta U+W
SciTegic.value.DoubleValue
0.275

@<SCITEGIC>MOL_PROPERTY
U+W
SciTegic.value.DoubleValue
-15.590

@<SCITEGIC>MOL_PROPERTY
Grad RMS
SciTegic.value.DoubleValue
0.000000

@<SCITEGIC>MOL_PROPERTY
U
SciTegic.value.DoubleValue
45.174

@<SCITEGIC>MOL_PROPERTY
W
SciTegic.value.DoubleValue
-60.765

@<SCITEGIC>MOL_PROPERTY
W(PB)
SciTegic.value.DoubleValue
-62.518

@<SCITEGIC>MOL_PROPERTY
W(SA)
SciTegic.value.DoubleValue
1.754

@<SCITEGIC>MOL_PROPERTY
Valence
SciTegic.value.DoubleValue
1.161

@<SCITEGIC>MOL_PROPERTY
Coulomb
SciTegic.value.DoubleValue
43.789

@<SCITEGIC>MOL_PROPERTY
VdW
SciTegic.value.DoubleValue
0.224

@<SCITEGIC>MOL_PROPERTY
VdW6
SciTegic.value.DoubleValue
-2.897

@<SCITEGIC>MOL_PROPERTY
VdW12
SciTegic.value.DoubleValue
3.121

@<SCITEGIC>MOL_PROPERTY
Bond
SciTegic.value.DoubleValue
0.100

@<SCITEGIC>MOL_PROPERTY
Angle
SciTegic.value.DoubleValue
0.500

@<SCITEGIC>MOL_PROPERTY
Pdih
SciTegic.value.DoubleValue
0.561

@<SCITEGIC>MOL_PROPERTY
Idih
SciTegic.value.DoubleValue
0.000

@<SCITEGIC>MOL_PROPERTY
Tether
SciTegic.value.DoubleValue
0.000

@<TRIPOS>MOLECULE
guest-1_confgen4.mol2 : confsearch ligand conformer 153
          17          16           1
SMALL
USER_CHARGES
 
@<TRIPOS>ATOM
       1    N1      20.041068   19.733994   19.902358 N.4        1 MOL1        -0.5891
       2    H1      19.072960   19.688661   20.230316 H          1 MOL1         0.3726
       3    H2      20.177465   18.950433   19.256675 H          1 MOL1         0.3726
       4    H3      20.133732   20.593148   19.350914 H          1 MOL1         0.3726
       5    C1      21.027248   19.693560   21.053811 C.3        1 MOL1         0.0314
       6    H4      20.880790   20.585370   21.669056 H          1 MOL1         0.0999
       7    H5      22.029089   19.744117   20.618729 H          1 MOL1         0.0999
       8    C2      20.924265   18.429597   21.933246 C.3        1 MOL1        -0.1308
       9    H6      20.821285   17.538637   21.299753 H          1 MOL1         0.1025
      10    H7      21.878144   18.312699   22.464562 H          1 MOL1         0.1025
      11    C3      19.791902   18.472959   22.990874 C.3        1 MOL1        -0.1243
      12    H8      19.941952   19.333523   23.657911 H          1 MOL1         0.1025
      13    H9      19.876057   17.579020   23.624735 H          1 MOL1         0.1025
      14    C4      18.365391   18.523393   22.398081 C.3        1 MOL1        -0.2258
      15    H10     18.158455   19.492534   21.929445 H          1 MOL1         0.1036
      16    H11     17.618835   18.382821   23.190577 H          1 MOL1         0.1036
      17    H12     18.214560   17.730251   21.654220 H          1 MOL1         0.1036
@<TRIPOS>BOND
    1     1     2    1
    2     1     3    1
    3     1     4    1
    4     1     5    1
    5     5     6    1
    6     5     7    1
    7     5     8    1
    8     8     9    1
    9     8    10    1
   10     8    11    1
   11    11    12    1
   12    11    13    1
   13    11    14    1
   14    14    15    1
   15    14    16    1
   16    14    17    1
@<TRIPOS>SUBSTRUCTURE
       1 MOL1            1 RESIDUE      1      MOL     
@<SCITEGIC>MOL_PROPERTY
VConf Rank
SciTegic.value.IntegerValue
153

@<SCITEGIC>MOL_PROPERTY
Conf_Id
SciTegic.value.IntegerValue
19

@<SCITEGIC>MOL_PROPERTY
Delta U+W
SciTegic.value.DoubleValue
2.662

@<SCITEGIC>MOL_PROPERTY
U+W
SciTegic.value.DoubleValue
-13.203

@<SCITEGIC>MOL_PROPERTY
Grad RMS
SciTegic.value.DoubleValue
0.000000

@<SCITEGIC>MOL_PROPERTY
U
SciTegic.value.DoubleValue
47.423

@<SCITEGIC>MOL_PROPERTY
W
SciTegic.value.DoubleValue
-60.626

@<SCITEGIC>MOL_PROPERTY
W(PB)
SciTegic.value.DoubleValue
-62.328

@<SCITEGIC>MOL_PROPERTY
W(SA)
SciTegic.value.DoubleValue
1.702

@<SCITEGIC>MOL_PROPERTY
Valence
SciTegic.value.DoubleValue
2.414

@<SCITEGIC>MOL_PROPERTY
Coulomb
SciTegic.value.DoubleValue
44.831

@<SCITEGIC>MOL_PROPERTY
VdW
SciTegic.value.DoubleValue
0.178

@<SCITEGIC>MOL_PROPERTY
VdW6
SciTegic.value.DoubleValue
-3.743

@<SCITEGIC>MOL_PROPERTY
VdW12
SciTegic.value.DoubleValue
3.921

@<SCITEGIC>MOL_PROPERTY
Bond
SciTegic.value.DoubleValue
0.138

@<SCITEGIC>MOL_PROPERTY
Angle
SciTegic.value.DoubleValue
0.941

@<SCITEGIC>MOL_PROPERTY
Pdih
SciTegic.value.DoubleValue
1.335

@<SCITEGIC>MOL_PROPERTY
Idih
SciTegic.value.DoubleValue
0.000

@<SCITEGIC>MOL_PROPERTY
Tether
SciTegic.value.DoubleValue
0.000

@<TRIPOS>MOLECULE
guest-1_confgen4.mol2 : confsearch ligand conformer 154
          17          16           1
SMALL
USER_CHARGES
 
@<TRIPOS>ATOM
       1    N1      21.008772   20.110032   22.641020 N.4        1 MOL1        -0.5891
       2    H1      21.882603   20.153968   23.175166 H          1 MOL1         0.3726
       3    H2      20.478866   20.956836   22.868182 H          1 MOL1         0.3726
       4    H3      21.257358   20.167341   21.650180 H          1 MOL1         0.3726
       5    C1      20.220658   18.851953   22.951106 C.3        1 MOL1         0.0314
       6    H4      19.996076   18.870855   24.021032 H          1 MOL1         0.0999
       7    H5      20.857348   17.985107   22.754879 H          1 MOL1         0.0999
       8    C2      18.900676   18.719713   22.162582 C.3        1 MOL1        -0.1308
       9    H6      18.251699   18.023538   22.710319 H          1 MOL1         0.1025
      10    H7      18.370750   19.681389   22.153313 H          1 MOL1         0.1025
      11    C3      19.065843   18.181191   20.718485 C.3        1 MOL1        -0.1243
      12    H8      18.065468   18.027672   20.289913 H          1 MOL1         0.1025
      13    H9      19.540047   17.190023   20.745645 H          1 MOL1         0.1025
      14    C4      19.867001   19.109795   19.777889 C.3        1 MOL1        -0.2258
      15    H10     19.475056   20.134974   19.801119 H          1 MOL1         0.1036
      16    H11     19.800635   18.751449   18.742351 H          1 MOL1         0.1036
      17    H12     20.930355   19.131010   20.043421 H          1 MOL1         0.1036
@<TRIPOS>BOND
    1     1     2    1
    2     1     3    1
    3     1     4    1
    4     1     5    1
    5     5     6    1
    6     5     7    1
    7     5     8    1
    8     8     9    1
    9     8    10    1
   10     8    11    1
   11    11    12    1
   12    11    13    1
   13    11    14    1
   14    14    15    1
   15    14    16    1
   16    14    17    1
@<TRIPOS>SUBSTRUCTURE
       1 MOL1            1 RESIDUE      1      MOL     
@<SCITEGIC>MOL_PROPERTY
VConf Rank
SciTegic.value.IntegerValue
154

@<SCITEGIC>MOL_PROPERTY
Conf_Id
SciTegic.value.IntegerValue
44

@<SCITEGIC>MOL_PROPERTY
Delta U+W
SciTegic.value.DoubleValue
2.712

@<SCITEGIC>MOL_PROPERTY
U+W
SciTegic.value.DoubleValue
-13.153

@<SCITEGIC>MOL_PROPERTY
Grad RMS
SciTegic.value.DoubleValue
0.000000

@<SCITEGIC>MOL_PROPERTY
U
SciTegic.value.DoubleValue
47.423

@<SCITEGIC>MOL_PROPERTY
W
SciTegic.value.DoubleValue
-60.576

@<SCITEGIC>MOL_PROPERTY
W(PB)
SciTegic.value.DoubleValue
-62.262

@<SCITEGIC>MOL_PROPERTY
W(SA)
SciTegic.value.DoubleValue
1.687

@<SCITEGIC>MOL_PROPERTY
Valence
SciTegic.value.DoubleValue
2.414

@<SCITEGIC>MOL_PROPERTY
Coulomb
SciTegic.value.DoubleValue
44.831

@<SCITEGIC>MOL_PROPERTY
VdW
SciTegic.value.DoubleValue
0.178

@<SCITEGIC>MOL_PROPERTY
VdW6
SciTegic.value.DoubleValue
-3.743

@<SCITEGIC>MOL_PROPERTY
VdW12
SciTegic.value.DoubleValue
3.922

@<SCITEGIC>MOL_PROPERTY
Bond
SciTegic.value.DoubleValue
0.138

@<SCITEGIC>MOL_PROPERTY
Angle
SciTegic.value.DoubleValue
0.941

@<SCITEGIC>MOL_PROPERTY
Pdih
SciTegic.value.DoubleValue
1.335

@<SCITEGIC>MOL_PROPERTY
Idih
SciTegic.value.DoubleValue
0.000

@<SCITEGIC>MOL_PROPERTY
Tether
SciTegic.value.DoubleValue
0.000

@<TRIPOS>MOLECULE
guest-1_confgen4.mol2 : confsearch ligand conformer 155
          17          16           1
SMALL
USER_CHARGES
 
@<TRIPOS>ATOM
       1    N1      19.236538   20.136647   20.090831 N.4        1 MOL1        -0.5891
       2    H1      19.293966   20.750703   20.908195 H          1 MOL1         0.3726
       3    H2      18.243186   19.958462   19.915105 H          1 MOL1         0.3726
       4    H3      19.589321   20.670555   19.290110 H          1 MOL1         0.3726
       5    C1      20.013919   18.851132   20.298166 C.3        1 MOL1         0.0314
       6    H4      21.064832   19.110648   20.449948 H          1 MOL1         0.0999
       7    H5      19.940118   18.265285   19.377909 H          1 MOL1         0.0999
       8    C2      19.510699   18.003567   21.484895 C.3        1 MOL1        -0.1308
       9    H6      18.467115   17.713842   21.303953 H          1 MOL1         0.1025
      10    H7      20.086049   17.068854   21.517876 H          1 MOL1         0.1025
      11    C3      19.616150   18.715135   22.856794 C.3        1 MOL1        -0.1243
      12    H8      19.223655   18.044659   23.634171 H          1 MOL1         0.1025
      13    H9      18.972396   19.605097   22.871030 H          1 MOL1         0.1025
      14    C4      21.064271   19.114172   23.222190 C.3        1 MOL1        -0.2258
      15    H10     21.728048   18.239858   23.215771 H          1 MOL1         0.1036
      16    H11     21.100431   19.554359   24.227126 H          1 MOL1         0.1036
      17    H12     21.467948   19.855789   22.521478 H          1 MOL1         0.1036
@<TRIPOS>BOND
    1     1     2    1
    2     1     3    1
    3     1     4    1
    4     1     5    1
    5     5     6    1
    6     5     7    1
    7     5     8    1
    8     8     9    1
    9     8    10    1
   10     8    11    1
   11    11    12    1
   12    11    13    1
   13    11    14    1
   14    14    15    1
   15    14    16    1
   16    14    17    1
@<TRIPOS>SUBSTRUCTURE
       1 MOL1            1 RESIDUE      1      MOL     
@<SCITEGIC>MOL_PROPERTY
VConf Rank
SciTegic.value.IntegerValue
155

@<SCITEGIC>MOL_PROPERTY
Conf_Id
SciTegic.value.IntegerValue
1

@<SCITEGIC>MOL_PROPERTY
Delta U+W
SciTegic.value.DoubleValue
0.685

@<SCITEGIC>MOL_PROPERTY
U+W
SciTegic.value.DoubleValue
-15.179

@<SCITEGIC>MOL_PROPERTY
Grad RMS
SciTegic.value.DoubleValue
0.000000

@<SCITEGIC>MOL_PROPERTY
U
SciTegic.value.DoubleValue
45.697

@<SCITEGIC>MOL_PROPERTY
W
SciTegic.value.DoubleValue
-60.876

@<SCITEGIC>MOL_PROPERTY
W(PB)
SciTegic.value.DoubleValue
-62.586

@<SCITEGIC>MOL_PROPERTY
W(SA)
SciTegic.value.DoubleValue
1.710

@<SCITEGIC>MOL_PROPERTY
Valence
SciTegic.value.DoubleValue
1.263

@<SCITEGIC>MOL_PROPERTY
Coulomb
SciTegic.value.DoubleValue
44.179

@<SCITEGIC>MOL_PROPERTY
VdW
SciTegic.value.DoubleValue
0.255

@<SCITEGIC>MOL_PROPERTY
VdW6
SciTegic.value.DoubleValue
-3.552

@<SCITEGIC>MOL_PROPERTY
VdW12
SciTegic.value.DoubleValue
3.807

@<SCITEGIC>MOL_PROPERTY
Bond
SciTegic.value.DoubleValue
0.125

@<SCITEGIC>MOL_PROPERTY
Angle
SciTegic.value.DoubleValue
0.616

@<SCITEGIC>MOL_PROPERTY
Pdih
SciTegic.value.DoubleValue
0.521

@<SCITEGIC>MOL_PROPERTY
Idih
SciTegic.value.DoubleValue
0.000

@<SCITEGIC>MOL_PROPERTY
Tether
SciTegic.value.DoubleValue
0.000

@<TRIPOS>MOLECULE
guest-1_confgen4.mol2 : confsearch ligand conformer 156
          17          16           1
SMALL
USER_CHARGES
 
@<TRIPOS>ATOM
       1    N1      20.475296   17.147089   21.912937 N.4        1 MOL1        -0.5891
       2    H1      19.688549   16.501381   21.796884 H          1 MOL1         0.3726
       3    H2      20.372376   17.587630   22.831512 H          1 MOL1         0.3726
       4    H3      21.325984   16.576356   21.948438 H          1 MOL1         0.3726
       5    C1      20.532132   18.175503   20.799837 C.3        1 MOL1         0.0314
       6    H4      20.679716   17.639376   19.858389 H          1 MOL1         0.0999
       7    H5      21.406373   18.809732   20.967950 H          1 MOL1         0.0999
       8    C2      19.266350   19.051234   20.695856 C.3        1 MOL1        -0.1308
       9    H6      19.370126   19.717014   19.828809 H          1 MOL1         0.1025
      10    H7      18.400307   18.409466   20.486445 H          1 MOL1         0.1025
      11    C3      18.982720   19.901151   21.959483 C.3        1 MOL1        -0.1243
      12    H8      18.785354   19.245919   22.818769 H          1 MOL1         0.1025
      13    H9      18.060280   20.476695   21.798998 H          1 MOL1         0.1025
      14    C4      20.130784   20.877940   22.302457 C.3        1 MOL1        -0.2258
      15    H10     19.859922   21.503562   23.162805 H          1 MOL1         0.1036
      16    H11     20.346471   21.545421   21.458054 H          1 MOL1         0.1036
      17    H12     21.053247   20.342571   22.560119 H          1 MOL1         0.1036
@<TRIPOS>BOND
    1     1     2    1
    2     1     3    1
    3     1     4    1
    4     1     5    1
    5     5     6    1
    6     5     7    1
    7     5     8    1
    8     8     9    1
    9     8    10    1
   10     8    11    1
   11    11    12    1
   12    11    13    1
   13    11    14    1
   14    14    15    1
   15    14    16    1
   16    14    17    1
@<TRIPOS>SUBSTRUCTURE
       1 MOL1            1 RESIDUE      1      MOL     
@<SCITEGIC>MOL_PROPERTY
VConf Rank
SciTegic.value.IntegerValue
156

@<SCITEGIC>MOL_PROPERTY
Conf_Id
SciTegic.value.IntegerValue
43

@<SCITEGIC>MOL_PROPERTY
Delta U+W
SciTegic.value.DoubleValue
0.642

@<SCITEGIC>MOL_PROPERTY
U+W
SciTegic.value.DoubleValue
-15.222

@<SCITEGIC>MOL_PROPERTY
Grad RMS
SciTegic.value.DoubleValue
0.000000

@<SCITEGIC>MOL_PROPERTY
U
SciTegic.value.DoubleValue
45.697

@<SCITEGIC>MOL_PROPERTY
W
SciTegic.value.DoubleValue
-60.919

@<SCITEGIC>MOL_PROPERTY
W(PB)
SciTegic.value.DoubleValue
-62.631

@<SCITEGIC>MOL_PROPERTY
W(SA)
SciTegic.value.DoubleValue
1.712

@<SCITEGIC>MOL_PROPERTY
Valence
SciTegic.value.DoubleValue
1.262

@<SCITEGIC>MOL_PROPERTY
Coulomb
SciTegic.value.DoubleValue
44.179

@<SCITEGIC>MOL_PROPERTY
VdW
SciTegic.value.DoubleValue
0.255

@<SCITEGIC>MOL_PROPERTY
VdW6
SciTegic.value.DoubleValue
-3.552

@<SCITEGIC>MOL_PROPERTY
VdW12
SciTegic.value.DoubleValue
3.807

@<SCITEGIC>MOL_PROPERTY
Bond
SciTegic.value.DoubleValue
0.125

@<SCITEGIC>MOL_PROPERTY
Angle
SciTegic.value.DoubleValue
0.616

@<SCITEGIC>MOL_PROPERTY
Pdih
SciTegic.value.DoubleValue
0.521

@<SCITEGIC>MOL_PROPERTY
Idih
SciTegic.value.DoubleValue
0.000

@<SCITEGIC>MOL_PROPERTY
Tether
SciTegic.value.DoubleValue
0.000

@<TRIPOS>MOLECULE
guest-1_confgen4.mol2 : confsearch ligand conformer 157
          17          16           1
SMALL
USER_CHARGES
 
@<TRIPOS>ATOM
       1    N1      21.138248   18.685208   19.355269 N.4        1 MOL1        -0.5891
       2    H1      21.075090   19.647623   19.009633 H          1 MOL1         0.3726
       3    H2      20.390929   18.152485   18.899837 H          1 MOL1         0.3726
       4    H3      22.025598   18.304450   19.010971 H          1 MOL1         0.3726
       5    C1      21.044379   18.617182   20.866532 C.3        1 MOL1         0.0314
       6    H4      21.885576   19.178247   21.282607 H          1 MOL1         0.0999
       7    H5      21.149926   17.570487   21.164548 H          1 MOL1         0.0999
       8    C2      19.722511   19.181498   21.418322 C.3        1 MOL1        -0.1308
       9    H6      19.612621   20.228001   21.104082 H          1 MOL1         0.1025
      10    H7      18.879519   18.625684   20.986551 H          1 MOL1         0.1025
      11    C3      19.667931   19.093435   22.959356 C.3        1 MOL1        -0.1243
      12    H8      20.513411   19.646848   23.392051 H          1 MOL1         0.1025
      13    H9      19.781127   18.046491   23.274666 H          1 MOL1         0.1025
      14    C4      18.344679   19.657797   23.520118 C.3        1 MOL1        -0.2258
      15    H10     18.325716   19.586180   24.615362 H          1 MOL1         0.1036
      16    H11     17.481551   19.101527   23.131811 H          1 MOL1         0.1036
      17    H12     18.219594   20.714505   23.250066 H          1 MOL1         0.1036
@<TRIPOS>BOND
    1     1     2    1
    2     1     3    1
    3     1     4    1
    4     1     5    1
    5     5     6    1
    6     5     7    1
    7     5     8    1
    8     8     9    1
    9     8    10    1
   10     8    11    1
   11    11    12    1
   12    11    13    1
   13    11    14    1
   14    14    15    1
   15    14    16    1
   16    14    17    1
@<TRIPOS>SUBSTRUCTURE
       1 MOL1            1 RESIDUE      1      MOL     
@<SCITEGIC>MOL_PROPERTY
VConf Rank
SciTegic.value.IntegerValue
157

@<SCITEGIC>MOL_PROPERTY
Conf_Id
SciTegic.value.IntegerValue
7

@<SCITEGIC>MOL_PROPERTY
Delta U+W
SciTegic.value.DoubleValue
0.000

@<SCITEGIC>MOL_PROPERTY
U+W
SciTegic.value.DoubleValue
-15.865

@<SCITEGIC>MOL_PROPERTY
Grad RMS
SciTegic.value.DoubleValue
0.000000

@<SCITEGIC>MOL_PROPERTY
U
SciTegic.value.DoubleValue
44.664

@<SCITEGIC>MOL_PROPERTY
W
SciTegic.value.DoubleValue
-60.529

@<SCITEGIC>MOL_PROPERTY
W(PB)
SciTegic.value.DoubleValue
-62.309

@<SCITEGIC>MOL_PROPERTY
W(SA)
SciTegic.value.DoubleValue
1.780

@<SCITEGIC>MOL_PROPERTY
Valence
SciTegic.value.DoubleValue
0.872

@<SCITEGIC>MOL_PROPERTY
Coulomb
SciTegic.value.DoubleValue
43.648

@<SCITEGIC>MOL_PROPERTY
VdW
SciTegic.value.DoubleValue
0.144

@<SCITEGIC>MOL_PROPERTY
VdW6
SciTegic.value.DoubleValue
-2.370

@<SCITEGIC>MOL_PROPERTY
VdW12
SciTegic.value.DoubleValue
2.515

@<SCITEGIC>MOL_PROPERTY
Bond
SciTegic.value.DoubleValue
0.080

@<SCITEGIC>MOL_PROPERTY
Angle
SciTegic.value.DoubleValue
0.376

@<SCITEGIC>MOL_PROPERTY
Pdih
SciTegic.value.DoubleValue
0.416

@<SCITEGIC>MOL_PROPERTY
Idih
SciTegic.value.DoubleValue
0.000

@<SCITEGIC>MOL_PROPERTY
Tether
SciTegic.value.DoubleValue
0.000

@<TRIPOS>MOLECULE
guest-1_confgen4.mol2 : confsearch ligand conformer 158
          17          16           1
SMALL
USER_CHARGES
 
@<TRIPOS>ATOM
       1    N1      21.886777   17.701342   21.402001 N.4        1 MOL1        -0.5891
       2    H1      22.142182   17.646542   20.411338 H          1 MOL1         0.3726
       3    H2      21.450605   16.808070   21.649923 H          1 MOL1         0.3726
       4    H3      22.762893   17.760305   21.930950 H          1 MOL1         0.3726
       5    C1      20.974717   18.877397   21.689049 C.3        1 MOL1         0.0314
       6    H4      21.512871   19.793368   21.430602 H          1 MOL1         0.0999
       7    H5      20.771475   18.890466   22.762995 H          1 MOL1         0.0999
       8    C2      19.646966   18.819934   20.909476 C.3        1 MOL1        -0.1308
       9    H6      19.863110   18.766690   19.834151 H          1 MOL1         0.1025
      10    H7      19.107252   17.899138   21.167801 H          1 MOL1         0.1025
      11    C3      18.742432   20.044736   21.180919 C.3        1 MOL1        -0.1243
      12    H8      17.853859   19.981915   20.537124 H          1 MOL1         0.1025
      13    H9      19.268859   20.965258   20.891617 H          1 MOL1         0.1025
      14    C4      18.290204   20.146919   22.655710 C.3        1 MOL1        -0.2258
      15    H10     17.765968   19.235816   22.972241 H          1 MOL1         0.1036
      16    H11     17.602871   20.992252   22.789848 H          1 MOL1         0.1036
      17    H12     19.142342   20.303626   23.329055 H          1 MOL1         0.1036
@<TRIPOS>BOND
    1     1     2    1
    2     1     3    1
    3     1     4    1
    4     1     5    1
    5     5     6    1
    6     5     7    1
    7     5     8    1
    8     8     9    1
    9     8    10    1
   10     8    11    1
   11    11    12    1
   12    11    13    1
   13    11    14    1
   14    14    15    1
   15    14    16    1
   16    14    17    1
@<TRIPOS>SUBSTRUCTURE
       1 MOL1            1 RESIDUE      1      MOL     
@<SCITEGIC>MOL_PROPERTY
VConf Rank
SciTegic.value.IntegerValue
158

@<SCITEGIC>MOL_PROPERTY
Conf_Id
SciTegic.value.IntegerValue
36

@<SCITEGIC>MOL_PROPERTY
Delta U+W
SciTegic.value.DoubleValue
0.275

@<SCITEGIC>MOL_PROPERTY
U+W
SciTegic.value.DoubleValue
-15.590

@<SCITEGIC>MOL_PROPERTY
Grad RMS
SciTegic.value.DoubleValue
0.000000

@<SCITEGIC>MOL_PROPERTY
U
SciTegic.value.DoubleValue
45.174

@<SCITEGIC>MOL_PROPERTY
W
SciTegic.value.DoubleValue
-60.765

@<SCITEGIC>MOL_PROPERTY
W(PB)
SciTegic.value.DoubleValue
-62.518

@<SCITEGIC>MOL_PROPERTY
W(SA)
SciTegic.value.DoubleValue
1.754

@<SCITEGIC>MOL_PROPERTY
Valence
SciTegic.value.DoubleValue
1.161

@<SCITEGIC>MOL_PROPERTY
Coulomb
SciTegic.value.DoubleValue
43.789

@<SCITEGIC>MOL_PROPERTY
VdW
SciTegic.value.DoubleValue
0.224

@<SCITEGIC>MOL_PROPERTY
VdW6
SciTegic.value.DoubleValue
-2.897

@<SCITEGIC>MOL_PROPERTY
VdW12
SciTegic.value.DoubleValue
3.121

@<SCITEGIC>MOL_PROPERTY
Bond
SciTegic.value.DoubleValue
0.100

@<SCITEGIC>MOL_PROPERTY
Angle
SciTegic.value.DoubleValue
0.500

@<SCITEGIC>MOL_PROPERTY
Pdih
SciTegic.value.DoubleValue
0.561

@<SCITEGIC>MOL_PROPERTY
Idih
SciTegic.value.DoubleValue
0.000

@<SCITEGIC>MOL_PROPERTY
Tether
SciTegic.value.DoubleValue
0.000

@<TRIPOS>MOLECULE
guest-1_confgen4.mol2 : confsearch ligand conformer 159
          17          16           1
SMALL
USER_CHARGES
 
@<TRIPOS>ATOM
       1    N1      18.896477   20.497195   21.301913 N.4        1 MOL1        -0.5891
       2    H1      18.731649   19.784258   20.586793 H          1 MOL1         0.3726
       3    H2      19.522768   21.196390   20.891590 H          1 MOL1         0.3726
       4    H3      18.000933   20.965183   21.474573 H          1 MOL1         0.3726
       5    C1      19.473914   19.898552   22.570070 C.3        1 MOL1         0.0314
       6    H4      18.737153   19.213839   22.998618 H          1 MOL1         0.0999
       7    H5      19.619906   20.721829   23.274654 H          1 MOL1         0.0999
       8    C2      20.816134   19.163509   22.370647 C.3        1 MOL1        -0.1308
       9    H6      21.476010   19.755659   21.722842 H          1 MOL1         0.1025
      10    H7      21.318178   19.112597   23.345945 H          1 MOL1         0.1025
      11    C3      20.682775   17.717928   21.827309 C.3        1 MOL1        -0.1243
      12    H8      20.072235   17.118613   22.517297 H          1 MOL1         0.1025
      13    H9      21.680041   17.255930   21.824603 H          1 MOL1         0.1025
      14    C4      20.092500   17.622857   20.402030 C.3        1 MOL1        -0.2258
      15    H10     19.026299   17.877324   20.390299 H          1 MOL1         0.1036
      16    H11     20.183216   16.597597   20.020232 H          1 MOL1         0.1036
      17    H12     20.623010   18.285457   19.705845 H          1 MOL1         0.1036
@<TRIPOS>BOND
    1     1     2    1
    2     1     3    1
    3     1     4    1
    4     1     5    1
    5     5     6    1
    6     5     7    1
    7     5     8    1
    8     8     9    1
    9     8    10    1
   10     8    11    1
   11    11    12    1
   12    11    13    1
   13    11    14    1
   14    14    15    1
   15    14    16    1
   16    14    17    1
@<TRIPOS>SUBSTRUCTURE
       1 MOL1            1 RESIDUE      1      MOL     
@<SCITEGIC>MOL_PROPERTY
VConf Rank
SciTegic.value.IntegerValue
159

@<SCITEGIC>MOL_PROPERTY
Conf_Id
SciTegic.value.IntegerValue
19

@<SCITEGIC>MOL_PROPERTY
Delta U+W
SciTegic.value.DoubleValue
2.662

@<SCITEGIC>MOL_PROPERTY
U+W
SciTegic.value.DoubleValue
-13.203

@<SCITEGIC>MOL_PROPERTY
Grad RMS
SciTegic.value.DoubleValue
0.000000

@<SCITEGIC>MOL_PROPERTY
U
SciTegic.value.DoubleValue
47.423

@<SCITEGIC>MOL_PROPERTY
W
SciTegic.value.DoubleValue
-60.626

@<SCITEGIC>MOL_PROPERTY
W(PB)
SciTegic.value.DoubleValue
-62.328

@<SCITEGIC>MOL_PROPERTY
W(SA)
SciTegic.value.DoubleValue
1.702

@<SCITEGIC>MOL_PROPERTY
Valence
SciTegic.value.DoubleValue
2.414

@<SCITEGIC>MOL_PROPERTY
Coulomb
SciTegic.value.DoubleValue
44.831

@<SCITEGIC>MOL_PROPERTY
VdW
SciTegic.value.DoubleValue
0.178

@<SCITEGIC>MOL_PROPERTY
VdW6
SciTegic.value.DoubleValue
-3.743

@<SCITEGIC>MOL_PROPERTY
VdW12
SciTegic.value.DoubleValue
3.921

@<SCITEGIC>MOL_PROPERTY
Bond
SciTegic.value.DoubleValue
0.138

@<SCITEGIC>MOL_PROPERTY
Angle
SciTegic.value.DoubleValue
0.941

@<SCITEGIC>MOL_PROPERTY
Pdih
SciTegic.value.DoubleValue
1.335

@<SCITEGIC>MOL_PROPERTY
Idih
SciTegic.value.DoubleValue
0.000

@<SCITEGIC>MOL_PROPERTY
Tether
SciTegic.value.DoubleValue
0.000

@<TRIPOS>MOLECULE
guest-1_confgen4.mol2 : confsearch ligand conformer 160
          17          16           1
SMALL
USER_CHARGES
 
@<TRIPOS>ATOM
       1    N1      18.703300   20.341289   20.943491 N.4        1 MOL1        -0.5891
       2    H1      17.798890   20.809664   21.059638 H          1 MOL1         0.3726
       3    H2      19.056024   20.601840   20.017651 H          1 MOL1         0.3726
       4    H3      19.342656   20.743959   21.633364 H          1 MOL1         0.3726
       5    C1      18.583766   18.837359   21.098235 C.3        1 MOL1         0.0314
       6    H4      17.889526   18.490795   20.327871 H          1 MOL1         0.0999
       7    H5      18.140389   18.621976   22.074108 H          1 MOL1         0.0999
       8    C2      19.918324   18.076424   20.951455 C.3        1 MOL1        -0.1308
       9    H6      19.683353   17.033776   20.699423 H          1 MOL1         0.1025
      10    H7      20.484485   18.472285   20.097942 H          1 MOL1         0.1025
      11    C3      20.799040   18.071483   22.227001 C.3        1 MOL1        -0.1243
      12    H8      21.665502   17.419774   22.046699 H          1 MOL1         0.1025
      13    H9      20.243270   17.614930   23.058085 H          1 MOL1         0.1025
      14    C4      21.312124   19.465285   22.654714 C.3        1 MOL1        -0.2258
      15    H10     21.790572   19.988422   21.816521 H          1 MOL1         0.1036
      16    H11     22.057293   19.367359   23.454896 H          1 MOL1         0.1036
      17    H12     20.500698   20.090223   23.045509 H          1 MOL1         0.1036
@<TRIPOS>BOND
    1     1     2    1
    2     1     3    1
    3     1     4    1
    4     1     5    1
    5     5     6    1
    6     5     7    1
    7     5     8    1
    8     8     9    1
    9     8    10    1
   10     8    11    1
   11    11    12    1
   12    11    13    1
   13    11    14    1
   14    14    15    1
   15    14    16    1
   16    14    17    1
@<TRIPOS>SUBSTRUCTURE
       1 MOL1            1 RESIDUE      1      MOL     
@<SCITEGIC>MOL_PROPERTY
VConf Rank
SciTegic.value.IntegerValue
160

@<SCITEGIC>MOL_PROPERTY
Conf_Id
SciTegic.value.IntegerValue
44

@<SCITEGIC>MOL_PROPERTY
Delta U+W
SciTegic.value.DoubleValue
2.712

@<SCITEGIC>MOL_PROPERTY
U+W
SciTegic.value.DoubleValue
-13.153

@<SCITEGIC>MOL_PROPERTY
Grad RMS
SciTegic.value.DoubleValue
0.000000

@<SCITEGIC>MOL_PROPERTY
U
SciTegic.value.DoubleValue
47.423

@<SCITEGIC>MOL_PROPERTY
W
SciTegic.value.DoubleValue
-60.576

@<SCITEGIC>MOL_PROPERTY
W(PB)
SciTegic.value.DoubleValue
-62.262

@<SCITEGIC>MOL_PROPERTY
W(SA)
SciTegic.value.DoubleValue
1.687

@<SCITEGIC>MOL_PROPERTY
Valence
SciTegic.value.DoubleValue
2.414

@<SCITEGIC>MOL_PROPERTY
Coulomb
SciTegic.value.DoubleValue
44.831

@<SCITEGIC>MOL_PROPERTY
VdW
SciTegic.value.DoubleValue
0.178

@<SCITEGIC>MOL_PROPERTY
VdW6
SciTegic.value.DoubleValue
-3.743

@<SCITEGIC>MOL_PROPERTY
VdW12
SciTegic.value.DoubleValue
3.922

@<SCITEGIC>MOL_PROPERTY
Bond
SciTegic.value.DoubleValue
0.138

@<SCITEGIC>MOL_PROPERTY
Angle
SciTegic.value.DoubleValue
0.941

@<SCITEGIC>MOL_PROPERTY
Pdih
SciTegic.value.DoubleValue
1.335

@<SCITEGIC>MOL_PROPERTY
Idih
SciTegic.value.DoubleValue
0.000

@<SCITEGIC>MOL_PROPERTY
Tether
SciTegic.value.DoubleValue
0.000

@<TRIPOS>MOLECULE
guest-1_confgen4.mol2 : confsearch ligand conformer 161
          17          16           1
SMALL
USER_CHARGES
 
@<TRIPOS>ATOM
       1    N1      21.163823   19.934655   20.337034 N.4        1 MOL1        -0.5891
       2    H1      20.615098   19.263067   19.792684 H          1 MOL1         0.3726
       3    H2      22.113293   19.557949   20.414348 H          1 MOL1         0.3726
       4    H3      21.228171   20.791394   19.777994 H          1 MOL1         0.3726
       5    C1      20.545484   20.193905   21.697292 C.3        1 MOL1         0.0314
       6    H4      19.550934   20.620159   21.542426 H          1 MOL1         0.0999
       7    H5      21.159030   20.943428   22.204555 H          1 MOL1         0.0999
       8    C2      20.439959   18.935527   22.583446 C.3        1 MOL1        -0.1308
       9    H6      21.447127   18.538359   22.766799 H          1 MOL1         0.1025
      10    H7      20.043913   19.229116   23.564648 H          1 MOL1         0.1025
      11    C3      19.547484   17.818400   21.987568 C.3        1 MOL1        -0.1243
      12    H8      19.544365   16.962556   22.677080 H          1 MOL1         0.1025
      13    H9      19.981332   17.449187   21.048359 H          1 MOL1         0.1025
      14    C4      18.089990   18.272797   21.744602 C.3        1 MOL1        -0.2258
      15    H10     17.633385   18.645785   22.670593 H          1 MOL1         0.1036
      16    H11     17.480029   17.433970   21.385041 H          1 MOL1         0.1036
      17    H12     18.035225   19.068508   20.991081 H          1 MOL1         0.1036
@<TRIPOS>BOND
    1     1     2    1
    2     1     3    1
    3     1     4    1
    4     1     5    1
    5     5     6    1
    6     5     7    1
    7     5     8    1
    8     8     9    1
    9     8    10    1
   10     8    11    1
   11    11    12    1
   12    11    13    1
   13    11    14    1
   14    14    15    1
   15    14    16    1
   16    14    17    1
@<TRIPOS>SUBSTRUCTURE
       1 MOL1            1 RESIDUE      1      MOL     
@<SCITEGIC>MOL_PROPERTY
VConf Rank
SciTegic.value.IntegerValue
161

@<SCITEGIC>MOL_PROPERTY
Conf_Id
SciTegic.value.IntegerValue
1

@<SCITEGIC>MOL_PROPERTY
Delta U+W
SciTegic.value.DoubleValue
0.685

@<SCITEGIC>MOL_PROPERTY
U+W
SciTegic.value.DoubleValue
-15.179

@<SCITEGIC>MOL_PROPERTY
Grad RMS
SciTegic.value.DoubleValue
0.000000

@<SCITEGIC>MOL_PROPERTY
U
SciTegic.value.DoubleValue
45.697

@<SCITEGIC>MOL_PROPERTY
W
SciTegic.value.DoubleValue
-60.876

@<SCITEGIC>MOL_PROPERTY
W(PB)
SciTegic.value.DoubleValue
-62.586

@<SCITEGIC>MOL_PROPERTY
W(SA)
SciTegic.value.DoubleValue
1.710

@<SCITEGIC>MOL_PROPERTY
Valence
SciTegic.value.DoubleValue
1.263

@<SCITEGIC>MOL_PROPERTY
Coulomb
SciTegic.value.DoubleValue
44.179

@<SCITEGIC>MOL_PROPERTY
VdW
SciTegic.value.DoubleValue
0.255

@<SCITEGIC>MOL_PROPERTY
VdW6
SciTegic.value.DoubleValue
-3.552

@<SCITEGIC>MOL_PROPERTY
VdW12
SciTegic.value.DoubleValue
3.807

@<SCITEGIC>MOL_PROPERTY
Bond
SciTegic.value.DoubleValue
0.125

@<SCITEGIC>MOL_PROPERTY
Angle
SciTegic.value.DoubleValue
0.616

@<SCITEGIC>MOL_PROPERTY
Pdih
SciTegic.value.DoubleValue
0.521

@<SCITEGIC>MOL_PROPERTY
Idih
SciTegic.value.DoubleValue
0.000

@<SCITEGIC>MOL_PROPERTY
Tether
SciTegic.value.DoubleValue
0.000

@<TRIPOS>MOLECULE
guest-1_confgen4.mol2 : confsearch ligand conformer 162
          17          16           1
SMALL
USER_CHARGES
 
@<TRIPOS>ATOM
       1    N1      19.066566   20.365609   20.406284 N.4        1 MOL1        -0.5891
       2    H1      18.422999   20.972388   20.923022 H          1 MOL1         0.3726
       3    H2      18.586322   19.474017   20.255024 H          1 MOL1         0.3726
       4    H3      19.202458   20.792450   19.484326 H          1 MOL1         0.3726
       5    C1      20.380320   20.178629   21.140413 C.3        1 MOL1         0.0314
       6    H4      20.852802   21.160348   21.232752 H          1 MOL1         0.0999
       7    H5      21.027152   19.549169   20.523814 H          1 MOL1         0.0999
       8    C2      20.226952   19.551824   22.541667 C.3        1 MOL1        -0.1308
       9    H6      21.214715   19.514935   23.019962 H          1 MOL1         0.1025
      10    H7      19.609585   20.211340   23.165883 H          1 MOL1         0.1025
      11    C3      19.612419   18.129919   22.531969 C.3        1 MOL1        -0.1243
      12    H8      18.586756   18.164519   22.140214 H          1 MOL1         0.1025
      13    H9      19.529209   17.773413   23.568252 H          1 MOL1         0.1025
      14    C4      20.446933   17.115159   21.717323 C.3        1 MOL1        -0.2258
      15    H10     20.011274   16.110375   21.792005 H          1 MOL1         0.1036
      16    H11     21.477686   17.061587   22.091150 H          1 MOL1         0.1036
      17    H12     20.481837   17.382359   20.653681 H          1 MOL1         0.1036
@<TRIPOS>BOND
    1     1     2    1
    2     1     3    1
    3     1     4    1
    4     1     5    1
    5     5     6    1
    6     5     7    1
    7     5     8    1
    8     8     9    1
    9     8    10    1
   10     8    11    1
   11    11    12    1
   12    11    13    1
   13    11    14    1
   14    14    15    1
   15    14    16    1
   16    14    17    1
@<TRIPOS>SUBSTRUCTURE
       1 MOL1            1 RESIDUE      1      MOL     
@<SCITEGIC>MOL_PROPERTY
VConf Rank
SciTegic.value.IntegerValue
162

@<SCITEGIC>MOL_PROPERTY
Conf_Id
SciTegic.value.IntegerValue
43

@<SCITEGIC>MOL_PROPERTY
Delta U+W
SciTegic.value.DoubleValue
0.642

@<SCITEGIC>MOL_PROPERTY
U+W
SciTegic.value.DoubleValue
-15.222

@<SCITEGIC>MOL_PROPERTY
Grad RMS
SciTegic.value.DoubleValue
0.000000

@<SCITEGIC>MOL_PROPERTY
U
SciTegic.value.DoubleValue
45.697

@<SCITEGIC>MOL_PROPERTY
W
SciTegic.value.DoubleValue
-60.919

@<SCITEGIC>MOL_PROPERTY
W(PB)
SciTegic.value.DoubleValue
-62.631

@<SCITEGIC>MOL_PROPERTY
W(SA)
SciTegic.value.DoubleValue
1.712

@<SCITEGIC>MOL_PROPERTY
Valence
SciTegic.value.DoubleValue
1.262

@<SCITEGIC>MOL_PROPERTY
Coulomb
SciTegic.value.DoubleValue
44.179

@<SCITEGIC>MOL_PROPERTY
VdW
SciTegic.value.DoubleValue
0.255

@<SCITEGIC>MOL_PROPERTY
VdW6
SciTegic.value.DoubleValue
-3.552

@<SCITEGIC>MOL_PROPERTY
VdW12
SciTegic.value.DoubleValue
3.807

@<SCITEGIC>MOL_PROPERTY
Bond
SciTegic.value.DoubleValue
0.125

@<SCITEGIC>MOL_PROPERTY
Angle
SciTegic.value.DoubleValue
0.616

@<SCITEGIC>MOL_PROPERTY
Pdih
SciTegic.value.DoubleValue
0.521

@<SCITEGIC>MOL_PROPERTY
Idih
SciTegic.value.DoubleValue
0.000

@<SCITEGIC>MOL_PROPERTY
Tether
SciTegic.value.DoubleValue
0.000

@<TRIPOS>MOLECULE
guest-1_confgen4.mol2 : confsearch ligand conformer 163
          17          16           1
SMALL
USER_CHARGES
 
@<TRIPOS>ATOM
       1    N1      21.800950   18.387004   23.255078 N.4        1 MOL1        -0.5891
       2    H1      21.198623   17.931747   23.947638 H          1 MOL1         0.3726
       3    H2      22.010827   19.325130   23.609434 H          1 MOL1         0.3726
       4    H3      22.685591   17.869092   23.245796 H          1 MOL1         0.3726
       5    C1      21.157972   18.428800   21.883149 C.3        1 MOL1         0.0314
       6    H4      20.991763   17.398590   21.556704 H          1 MOL1         0.0999
       7    H5      21.865166   18.896890   21.193009 H          1 MOL1         0.0999
       8    C2      19.825677   19.200000   21.860755 C.3        1 MOL1        -0.1308
       9    H6      19.123339   18.736440   22.566321 H          1 MOL1         0.1025
      10    H7      19.993760   20.229614   22.203731 H          1 MOL1         0.1025
      11    C3      19.205004   19.218398   20.446560 C.3        1 MOL1        -0.1243
      12    H8      19.039589   18.187967   20.101341 H          1 MOL1         0.1025
      13    H9      19.908904   19.679379   19.739208 H          1 MOL1         0.1025
      14    C4      17.868134   19.990292   20.416355 C.3        1 MOL1        -0.2258
      15    H10     17.443877   19.991704   19.403906 H          1 MOL1         0.1036
      16    H11     18.007692   21.034879   20.723877 H          1 MOL1         0.1036
      17    H12     17.131537   19.531720   21.088920 H          1 MOL1         0.1036
@<TRIPOS>BOND
    1     1     2    1
    2     1     3    1
    3     1     4    1
    4     1     5    1
    5     5     6    1
    6     5     7    1
    7     5     8    1
    8     8     9    1
    9     8    10    1
   10     8    11    1
   11    11    12    1
   12    11    13    1
   13    11    14    1
   14    14    15    1
   15    14    16    1
   16    14    17    1
@<TRIPOS>SUBSTRUCTURE
       1 MOL1            1 RESIDUE      1      MOL     
@<SCITEGIC>MOL_PROPERTY
VConf Rank
SciTegic.value.IntegerValue
163

@<SCITEGIC>MOL_PROPERTY
Conf_Id
SciTegic.value.IntegerValue
7

@<SCITEGIC>MOL_PROPERTY
Delta U+W
SciTegic.value.DoubleValue
0.000

@<SCITEGIC>MOL_PROPERTY
U+W
SciTegic.value.DoubleValue
-15.865

@<SCITEGIC>MOL_PROPERTY
Grad RMS
SciTegic.value.DoubleValue
0.000000

@<SCITEGIC>MOL_PROPERTY
U
SciTegic.value.DoubleValue
44.664

@<SCITEGIC>MOL_PROPERTY
W
SciTegic.value.DoubleValue
-60.529

@<SCITEGIC>MOL_PROPERTY
W(PB)
SciTegic.value.DoubleValue
-62.309

@<SCITEGIC>MOL_PROPERTY
W(SA)
SciTegic.value.DoubleValue
1.780

@<SCITEGIC>MOL_PROPERTY
Valence
SciTegic.value.DoubleValue
0.872

@<SCITEGIC>MOL_PROPERTY
Coulomb
SciTegic.value.DoubleValue
43.648

@<SCITEGIC>MOL_PROPERTY
VdW
SciTegic.value.DoubleValue
0.144

@<SCITEGIC>MOL_PROPERTY
VdW6
SciTegic.value.DoubleValue
-2.370

@<SCITEGIC>MOL_PROPERTY
VdW12
SciTegic.value.DoubleValue
2.515

@<SCITEGIC>MOL_PROPERTY
Bond
SciTegic.value.DoubleValue
0.080

@<SCITEGIC>MOL_PROPERTY
Angle
SciTegic.value.DoubleValue
0.376

@<SCITEGIC>MOL_PROPERTY
Pdih
SciTegic.value.DoubleValue
0.416

@<SCITEGIC>MOL_PROPERTY
Idih
SciTegic.value.DoubleValue
0.000

@<SCITEGIC>MOL_PROPERTY
Tether
SciTegic.value.DoubleValue
0.000

@<TRIPOS>MOLECULE
guest-1_confgen4.mol2 : confsearch ligand conformer 164
          17          16           1
SMALL
USER_CHARGES
 
@<TRIPOS>ATOM
       1    N1      18.491244   18.829436   19.699166 N.4        1 MOL1        -0.5891
       2    H1      17.723842   19.504832   19.766871 H          1 MOL1         0.3726
       3    H2      18.105657   17.911134   19.939353 H          1 MOL1         0.3726
       4    H3      18.762889   18.787753   18.711586 H          1 MOL1         0.3726
       5    C1      19.658778   19.205393   20.589602 C.3        1 MOL1         0.0314
       6    H4      20.036957   20.176507   20.258959 H          1 MOL1         0.0999
       7    H5      20.446638   18.462205   20.441996 H          1 MOL1         0.0999
       8    C2      19.284799   19.276840   22.082584 C.3        1 MOL1        -0.1308
       9    H6      18.465780   19.996378   22.214309 H          1 MOL1         0.1025
      10    H7      18.903396   18.301943   22.414238 H          1 MOL1         0.1025
      11    C3      20.474487   19.699459   22.975916 C.3        1 MOL1        -0.1243
      12    H8      20.122229   19.808818   24.011260 H          1 MOL1         0.1025
      13    H9      20.836242   20.690230   22.666583 H          1 MOL1         0.1025
      14    C4      21.642661   18.687342   22.945141 C.3        1 MOL1        -0.2258
      15    H10     21.306101   17.686298   23.244748 H          1 MOL1         0.1036
      16    H11     22.436656   18.994782   23.638004 H          1 MOL1         0.1036
      17    H12     22.087026   18.614422   21.944485 H          1 MOL1         0.1036
@<TRIPOS>BOND
    1     1     2    1
    2     1     3    1
    3     1     4    1
    4     1     5    1
    5     5     6    1
    6     5     7    1
    7     5     8    1
    8     8     9    1
    9     8    10    1
   10     8    11    1
   11    11    12    1
   12    11    13    1
   13    11    14    1
   14    14    15    1
   15    14    16    1
   16    14    17    1
@<TRIPOS>SUBSTRUCTURE
       1 MOL1            1 RESIDUE      1      MOL     
@<SCITEGIC>MOL_PROPERTY
VConf Rank
SciTegic.value.IntegerValue
164

@<SCITEGIC>MOL_PROPERTY
Conf_Id
SciTegic.value.IntegerValue
36

@<SCITEGIC>MOL_PROPERTY
Delta U+W
SciTegic.value.DoubleValue
0.275

@<SCITEGIC>MOL_PROPERTY
U+W
SciTegic.value.DoubleValue
-15.590

@<SCITEGIC>MOL_PROPERTY
Grad RMS
SciTegic.value.DoubleValue
0.000000

@<SCITEGIC>MOL_PROPERTY
U
SciTegic.value.DoubleValue
45.174

@<SCITEGIC>MOL_PROPERTY
W
SciTegic.value.DoubleValue
-60.765

@<SCITEGIC>MOL_PROPERTY
W(PB)
SciTegic.value.DoubleValue
-62.518

@<SCITEGIC>MOL_PROPERTY
W(SA)
SciTegic.value.DoubleValue
1.754

@<SCITEGIC>MOL_PROPERTY
Valence
SciTegic.value.DoubleValue
1.161

@<SCITEGIC>MOL_PROPERTY
Coulomb
SciTegic.value.DoubleValue
43.789

@<SCITEGIC>MOL_PROPERTY
VdW
SciTegic.value.DoubleValue
0.224

@<SCITEGIC>MOL_PROPERTY
VdW6
SciTegic.value.DoubleValue
-2.897

@<SCITEGIC>MOL_PROPERTY
VdW12
SciTegic.value.DoubleValue
3.121

@<SCITEGIC>MOL_PROPERTY
Bond
SciTegic.value.DoubleValue
0.100

@<SCITEGIC>MOL_PROPERTY
Angle
SciTegic.value.DoubleValue
0.500

@<SCITEGIC>MOL_PROPERTY
Pdih
SciTegic.value.DoubleValue
0.561

@<SCITEGIC>MOL_PROPERTY
Idih
SciTegic.value.DoubleValue
0.000

@<SCITEGIC>MOL_PROPERTY
Tether
SciTegic.value.DoubleValue
0.000

@<TRIPOS>MOLECULE
guest-1_confgen4.mol2 : confsearch ligand conformer 165
          17          16           1
SMALL
USER_CHARGES
 
@<TRIPOS>ATOM
       1    N1      19.255370   20.480164   22.473251 N.4        1 MOL1        -0.5891
       2    H1      20.085903   20.119459   22.949647 H          1 MOL1         0.3726
       3    H2      18.439895   20.152139   22.999445 H          1 MOL1         0.3726
       4    H3      19.275285   21.501222   22.561944 H          1 MOL1         0.3726
       5    C1      19.203981   20.040782   21.022619 C.3        1 MOL1         0.0314
       6    H4      20.058870   20.474597   20.497004 H          1 MOL1         0.0999
       7    H5      18.292433   20.464377   20.592289 H          1 MOL1         0.0999
       8    C2      19.189992   18.510520   20.823336 C.3        1 MOL1        -0.1308
       9    H6      18.497127   18.045155   21.536850 H          1 MOL1         0.1025
      10    H7      18.777557   18.306426   19.826295 H          1 MOL1         0.1025
      11    C3      20.584133   17.838410   20.909041 C.3        1 MOL1        -0.1243
      12    H8      21.249481   18.269057   20.147545 H          1 MOL1         0.1025
      13    H9      20.472732   16.776248   20.649444 H          1 MOL1         0.1025
      14    C4      21.257283   17.937863   22.296795 C.3        1 MOL1        -0.2258
      15    H10     21.580525   18.962417   22.514696 H          1 MOL1         0.1036
      16    H11     22.152427   17.303321   22.331841 H          1 MOL1         0.1036
      17    H12     20.580204   17.602561   23.093218 H          1 MOL1         0.1036
@<TRIPOS>BOND
    1     1     2    1
    2     1     3    1
    3     1     4    1
    4     1     5    1
    5     5     6    1
    6     5     7    1
    7     5     8    1
    8     8     9    1
    9     8    10    1
   10     8    11    1
   11    11    12    1
   12    11    13    1
   13    11    14    1
   14    14    15    1
   15    14    16    1
   16    14    17    1
@<TRIPOS>SUBSTRUCTURE
       1 MOL1            1 RESIDUE      1      MOL     
@<SCITEGIC>MOL_PROPERTY
VConf Rank
SciTegic.value.IntegerValue
165

@<SCITEGIC>MOL_PROPERTY
Conf_Id
SciTegic.value.IntegerValue
19

@<SCITEGIC>MOL_PROPERTY
Delta U+W
SciTegic.value.DoubleValue
2.662

@<SCITEGIC>MOL_PROPERTY
U+W
SciTegic.value.DoubleValue
-13.203

@<SCITEGIC>MOL_PROPERTY
Grad RMS
SciTegic.value.DoubleValue
0.000000

@<SCITEGIC>MOL_PROPERTY
U
SciTegic.value.DoubleValue
47.423

@<SCITEGIC>MOL_PROPERTY
W
SciTegic.value.DoubleValue
-60.626

@<SCITEGIC>MOL_PROPERTY
W(PB)
SciTegic.value.DoubleValue
-62.328

@<SCITEGIC>MOL_PROPERTY
W(SA)
SciTegic.value.DoubleValue
1.702

@<SCITEGIC>MOL_PROPERTY
Valence
SciTegic.value.DoubleValue
2.414

@<SCITEGIC>MOL_PROPERTY
Coulomb
SciTegic.value.DoubleValue
44.831

@<SCITEGIC>MOL_PROPERTY
VdW
SciTegic.value.DoubleValue
0.178

@<SCITEGIC>MOL_PROPERTY
VdW6
SciTegic.value.DoubleValue
-3.743

@<SCITEGIC>MOL_PROPERTY
VdW12
SciTegic.value.DoubleValue
3.921

@<SCITEGIC>MOL_PROPERTY
Bond
SciTegic.value.DoubleValue
0.138

@<SCITEGIC>MOL_PROPERTY
Angle
SciTegic.value.DoubleValue
0.941

@<SCITEGIC>MOL_PROPERTY
Pdih
SciTegic.value.DoubleValue
1.335

@<SCITEGIC>MOL_PROPERTY
Idih
SciTegic.value.DoubleValue
0.000

@<SCITEGIC>MOL_PROPERTY
Tether
SciTegic.value.DoubleValue
0.000

@<TRIPOS>MOLECULE
guest-1_confgen4.mol2 : confsearch ligand conformer 166
          17          16           1
SMALL
USER_CHARGES
 
@<TRIPOS>ATOM
       1    N1      20.514243   17.507243   20.801933 N.4        1 MOL1        -0.5891
       2    H1      20.927085   17.084274   19.964388 H          1 MOL1         0.3726
       3    H2      20.221667   16.736751   21.410392 H          1 MOL1         0.3726
       4    H3      21.263008   18.007008   21.288173 H          1 MOL1         0.3726
       5    C1      19.356604   18.424802   20.458431 C.3        1 MOL1         0.0314
       6    H4      18.606308   17.815410   19.947321 H          1 MOL1         0.0999
       7    H5      19.710762   19.184002   19.755943 H          1 MOL1         0.0999
       8    C2      18.703760   19.106764   21.679224 C.3        1 MOL1        -0.1308
       9    H6      17.691870   19.417989   21.387568 H          1 MOL1         0.1025
      10    H7      18.572718   18.378676   22.490670 H          1 MOL1         0.1025
      11    C3      19.457395   20.359200   22.195114 C.3        1 MOL1        -0.1243
      12    H8      18.855576   20.822280   22.989696 H          1 MOL1         0.1025
      13    H9      19.526189   21.106120   21.391746 H          1 MOL1         0.1025
      14    C4      20.869870   20.070638   22.752361 C.3        1 MOL1        -0.2258
      15    H10     20.848634   19.259541   23.491836 H          1 MOL1         0.1036
      16    H11     21.272743   20.963109   23.248692 H          1 MOL1         0.1036
      17    H12     21.570779   19.803037   21.953113 H          1 MOL1         0.1036
@<TRIPOS>BOND
    1     1     2    1
    2     1     3    1
    3     1     4    1
    4     1     5    1
    5     5     6    1
    6     5     7    1
    7     5     8    1
    8     8     9    1
    9     8    10    1
   10     8    11    1
   11    11    12    1
   12    11    13    1
   13    11    14    1
   14    14    15    1
   15    14    16    1
   16    14    17    1
@<TRIPOS>SUBSTRUCTURE
       1 MOL1            1 RESIDUE      1      MOL     
@<SCITEGIC>MOL_PROPERTY
VConf Rank
SciTegic.value.IntegerValue
166

@<SCITEGIC>MOL_PROPERTY
Conf_Id
SciTegic.value.IntegerValue
44

@<SCITEGIC>MOL_PROPERTY
Delta U+W
SciTegic.value.DoubleValue
2.712

@<SCITEGIC>MOL_PROPERTY
U+W
SciTegic.value.DoubleValue
-13.153

@<SCITEGIC>MOL_PROPERTY
Grad RMS
SciTegic.value.DoubleValue
0.000000

@<SCITEGIC>MOL_PROPERTY
U
SciTegic.value.DoubleValue
47.423

@<SCITEGIC>MOL_PROPERTY
W
SciTegic.value.DoubleValue
-60.576

@<SCITEGIC>MOL_PROPERTY
W(PB)
SciTegic.value.DoubleValue
-62.262

@<SCITEGIC>MOL_PROPERTY
W(SA)
SciTegic.value.DoubleValue
1.687

@<SCITEGIC>MOL_PROPERTY
Valence
SciTegic.value.DoubleValue
2.414

@<SCITEGIC>MOL_PROPERTY
Coulomb
SciTegic.value.DoubleValue
44.831

@<SCITEGIC>MOL_PROPERTY
VdW
SciTegic.value.DoubleValue
0.178

@<SCITEGIC>MOL_PROPERTY
VdW6
SciTegic.value.DoubleValue
-3.743

@<SCITEGIC>MOL_PROPERTY
VdW12
SciTegic.value.DoubleValue
3.922

@<SCITEGIC>MOL_PROPERTY
Bond
SciTegic.value.DoubleValue
0.138

@<SCITEGIC>MOL_PROPERTY
Angle
SciTegic.value.DoubleValue
0.941

@<SCITEGIC>MOL_PROPERTY
Pdih
SciTegic.value.DoubleValue
1.335

@<SCITEGIC>MOL_PROPERTY
Idih
SciTegic.value.DoubleValue
0.000

@<SCITEGIC>MOL_PROPERTY
Tether
SciTegic.value.DoubleValue
0.000

@<TRIPOS>MOLECULE
guest-1_confgen4.mol2 : confsearch ligand conformer 167
          17          16           1
SMALL
USER_CHARGES
 
@<TRIPOS>ATOM
       1    N1      19.141414   20.856049   21.796608 N.4        1 MOL1        -0.5891
       2    H1      18.373073   20.187177   21.900089 H          1 MOL1         0.3726
       3    H2      19.023019   21.315173   20.888552 H          1 MOL1         0.3726
       4    H3      19.009609   21.576450   22.513768 H          1 MOL1         0.3726
       5    C1      20.494041   20.180983   21.917201 C.3        1 MOL1         0.0314
       6    H4      20.565351   19.739416   22.914566 H          1 MOL1         0.0999
       7    H5      21.261292   20.955656   21.835068 H          1 MOL1         0.0999
       8    C2      20.746444   19.096911   20.849024 C.3        1 MOL1        -0.1308
       9    H6      20.713111   19.557786   19.852915 H          1 MOL1         0.1025
      10    H7      21.767272   18.711965   20.973653 H          1 MOL1         0.1025
      11    C3      19.746484   17.915050   20.902313 C.3        1 MOL1        -0.1243
      12    H8      19.994548   17.205338   20.100641 H          1 MOL1         0.1025
      13    H9      18.729575   18.270872   20.687974 H          1 MOL1         0.1025
      14    C4      19.762462   17.168967   22.256161 C.3        1 MOL1        -0.2258
      15    H10     20.769694   16.802048   22.492639 H          1 MOL1         0.1036
      16    H11     19.089171   16.302506   22.226262 H          1 MOL1         0.1036
      17    H12     19.432082   17.816416   23.078114 H          1 MOL1         0.1036
@<TRIPOS>BOND
    1     1     2    1
    2     1     3    1
    3     1     4    1
    4     1     5    1
    5     5     6    1
    6     5     7    1
    7     5     8    1
    8     8     9    1
    9     8    10    1
   10     8    11    1
   11    11    12    1
   12    11    13    1
   13    11    14    1
   14    14    15    1
   15    14    16    1
   16    14    17    1
@<TRIPOS>SUBSTRUCTURE
       1 MOL1            1 RESIDUE      1      MOL     
@<SCITEGIC>MOL_PROPERTY
VConf Rank
SciTegic.value.IntegerValue
167

@<SCITEGIC>MOL_PROPERTY
Conf_Id
SciTegic.value.IntegerValue
1

@<SCITEGIC>MOL_PROPERTY
Delta U+W
SciTegic.value.DoubleValue
0.685

@<SCITEGIC>MOL_PROPERTY
U+W
SciTegic.value.DoubleValue
-15.179

@<SCITEGIC>MOL_PROPERTY
Grad RMS
SciTegic.value.DoubleValue
0.000000

@<SCITEGIC>MOL_PROPERTY
U
SciTegic.value.DoubleValue
45.697

@<SCITEGIC>MOL_PROPERTY
W
SciTegic.value.DoubleValue
-60.876

@<SCITEGIC>MOL_PROPERTY
W(PB)
SciTegic.value.DoubleValue
-62.586

@<SCITEGIC>MOL_PROPERTY
W(SA)
SciTegic.value.DoubleValue
1.710

@<SCITEGIC>MOL_PROPERTY
Valence
SciTegic.value.DoubleValue
1.263

@<SCITEGIC>MOL_PROPERTY
Coulomb
SciTegic.value.DoubleValue
44.179

@<SCITEGIC>MOL_PROPERTY
VdW
SciTegic.value.DoubleValue
0.255

@<SCITEGIC>MOL_PROPERTY
VdW6
SciTegic.value.DoubleValue
-3.552

@<SCITEGIC>MOL_PROPERTY
VdW12
SciTegic.value.DoubleValue
3.807

@<SCITEGIC>MOL_PROPERTY
Bond
SciTegic.value.DoubleValue
0.125

@<SCITEGIC>MOL_PROPERTY
Angle
SciTegic.value.DoubleValue
0.616

@<SCITEGIC>MOL_PROPERTY
Pdih
SciTegic.value.DoubleValue
0.521

@<SCITEGIC>MOL_PROPERTY
Idih
SciTegic.value.DoubleValue
0.000

@<SCITEGIC>MOL_PROPERTY
Tether
SciTegic.value.DoubleValue
0.000

@<TRIPOS>MOLECULE
guest-1_confgen4.mol2 : confsearch ligand conformer 168
          17          16           1
SMALL
USER_CHARGES
 
@<TRIPOS>ATOM
       1    N1      21.402837   19.302944   22.898802 N.4        1 MOL1        -0.5891
       2    H1      22.244399   18.786813   22.625383 H          1 MOL1         0.3726
       3    H2      20.755854   18.627814   23.316008 H          1 MOL1         0.3726
       4    H3      21.679875   19.951123   23.642968 H          1 MOL1         0.3726
       5    C1      20.777005   20.028254   21.723167 C.3        1 MOL1         0.0314
       6    H4      21.505876   20.754851   21.353923 H          1 MOL1         0.0999
       7    H5      19.906396   20.579034   22.088526 H          1 MOL1         0.0999
       8    C2      20.355723   19.095654   20.568741 C.3        1 MOL1        -0.1308
       9    H6      19.975562   19.710020   19.741797 H          1 MOL1         0.1025
      10    H7      21.243219   18.577664   20.181719 H          1 MOL1         0.1025
      11    C3      19.281818   18.051067   20.962599 C.3        1 MOL1        -0.1243
      12    H8      19.680414   17.369195   21.726029 H          1 MOL1         0.1025
      13    H9      19.057221   17.426944   20.086282 H          1 MOL1         0.1025
      14    C4      17.970678   18.692888   21.471296 C.3        1 MOL1        -0.2258
      15    H10     17.217986   17.920504   21.675858 H          1 MOL1         0.1036
      16    H11     17.551420   19.379102   20.724034 H          1 MOL1         0.1036
      17    H12     18.129704   19.254168   22.400609 H          1 MOL1         0.1036
@<TRIPOS>BOND
    1     1     2    1
    2     1     3    1
    3     1     4    1
    4     1     5    1
    5     5     6    1
    6     5     7    1
    7     5     8    1
    8     8     9    1
    9     8    10    1
   10     8    11    1
   11    11    12    1
   12    11    13    1
   13    11    14    1
   14    14    15    1
   15    14    16    1
   16    14    17    1
@<TRIPOS>SUBSTRUCTURE
       1 MOL1            1 RESIDUE      1      MOL     
@<SCITEGIC>MOL_PROPERTY
VConf Rank
SciTegic.value.IntegerValue
168

@<SCITEGIC>MOL_PROPERTY
Conf_Id
SciTegic.value.IntegerValue
43

@<SCITEGIC>MOL_PROPERTY
Delta U+W
SciTegic.value.DoubleValue
0.642

@<SCITEGIC>MOL_PROPERTY
U+W
SciTegic.value.DoubleValue
-15.222

@<SCITEGIC>MOL_PROPERTY
Grad RMS
SciTegic.value.DoubleValue
0.000000

@<SCITEGIC>MOL_PROPERTY
U
SciTegic.value.DoubleValue
45.697

@<SCITEGIC>MOL_PROPERTY
W
SciTegic.value.DoubleValue
-60.919

@<SCITEGIC>MOL_PROPERTY
W(PB)
SciTegic.value.DoubleValue
-62.631

@<SCITEGIC>MOL_PROPERTY
W(SA)
SciTegic.value.DoubleValue
1.712

@<SCITEGIC>MOL_PROPERTY
Valence
SciTegic.value.DoubleValue
1.262

@<SCITEGIC>MOL_PROPERTY
Coulomb
SciTegic.value.DoubleValue
44.179

@<SCITEGIC>MOL_PROPERTY
VdW
SciTegic.value.DoubleValue
0.255

@<SCITEGIC>MOL_PROPERTY
VdW6
SciTegic.value.DoubleValue
-3.552

@<SCITEGIC>MOL_PROPERTY
VdW12
SciTegic.value.DoubleValue
3.807

@<SCITEGIC>MOL_PROPERTY
Bond
SciTegic.value.DoubleValue
0.125

@<SCITEGIC>MOL_PROPERTY
Angle
SciTegic.value.DoubleValue
0.616

@<SCITEGIC>MOL_PROPERTY
Pdih
SciTegic.value.DoubleValue
0.521

@<SCITEGIC>MOL_PROPERTY
Idih
SciTegic.value.DoubleValue
0.000

@<SCITEGIC>MOL_PROPERTY
Tether
SciTegic.value.DoubleValue
0.000

@<TRIPOS>MOLECULE
guest-1_confgen4.mol2 : confsearch ligand conformer 169
          17          16           1
SMALL
USER_CHARGES
 
@<TRIPOS>ATOM
       1    N1      19.775909   17.373975   19.676536 N.4        1 MOL1        -0.5891
       2    H1      20.728535   17.482572   19.315416 H          1 MOL1         0.3726
       3    H2      19.160491   17.927405   19.072654 H          1 MOL1         0.3726
       4    H3      19.518042   16.391084   19.541120 H          1 MOL1         0.3726
       5    C1      19.668758   17.789585   21.130201 C.3        1 MOL1         0.0314
       6    H4      20.324999   17.140352   21.716178 H          1 MOL1         0.0999
       7    H5      18.638848   17.618649   21.455147 H          1 MOL1         0.0999
       8    C2      20.049318   19.261993   21.369887 C.3        1 MOL1        -0.1308
       9    H6      21.078780   19.433521   21.028162 H          1 MOL1         0.1025
      10    H7      19.398343   19.910172   20.768152 H          1 MOL1         0.1025
      11    C3      19.926773   19.643612   22.861487 C.3        1 MOL1        -0.1243
      12    H8      20.575668   18.992922   23.464699 H          1 MOL1         0.1025
      13    H9      18.897276   19.469066   23.204992 H          1 MOL1         0.1025
      14    C4      20.307037   21.119344   23.109616 C.3        1 MOL1        -0.2258
      15    H10     20.213522   21.370237   24.174208 H          1 MOL1         0.1036
      16    H11     19.652240   21.796527   22.545815 H          1 MOL1         0.1036
      17    H12     21.343867   21.316630   22.807511 H          1 MOL1         0.1036
@<TRIPOS>BOND
    1     1     2    1
    2     1     3    1
    3     1     4    1
    4     1     5    1
    5     5     6    1
    6     5     7    1
    7     5     8    1
    8     8     9    1
    9     8    10    1
   10     8    11    1
   11    11    12    1
   12    11    13    1
   13    11    14    1
   14    14    15    1
   15    14    16    1
   16    14    17    1
@<TRIPOS>SUBSTRUCTURE
       1 MOL1            1 RESIDUE      1      MOL     
@<SCITEGIC>MOL_PROPERTY
VConf Rank
SciTegic.value.IntegerValue
169

@<SCITEGIC>MOL_PROPERTY
Conf_Id
SciTegic.value.IntegerValue
7

@<SCITEGIC>MOL_PROPERTY
Delta U+W
SciTegic.value.DoubleValue
0.000

@<SCITEGIC>MOL_PROPERTY
U+W
SciTegic.value.DoubleValue
-15.865

@<SCITEGIC>MOL_PROPERTY
Grad RMS
SciTegic.value.DoubleValue
0.000000

@<SCITEGIC>MOL_PROPERTY
U
SciTegic.value.DoubleValue
44.664

@<SCITEGIC>MOL_PROPERTY
W
SciTegic.value.DoubleValue
-60.529

@<SCITEGIC>MOL_PROPERTY
W(PB)
SciTegic.value.DoubleValue
-62.309

@<SCITEGIC>MOL_PROPERTY
W(SA)
SciTegic.value.DoubleValue
1.780

@<SCITEGIC>MOL_PROPERTY
Valence
SciTegic.value.DoubleValue
0.872

@<SCITEGIC>MOL_PROPERTY
Coulomb
SciTegic.value.DoubleValue
43.648

@<SCITEGIC>MOL_PROPERTY
VdW
SciTegic.value.DoubleValue
0.144

@<SCITEGIC>MOL_PROPERTY
VdW6
SciTegic.value.DoubleValue
-2.370

@<SCITEGIC>MOL_PROPERTY
VdW12
SciTegic.value.DoubleValue
2.515

@<SCITEGIC>MOL_PROPERTY
Bond
SciTegic.value.DoubleValue
0.080

@<SCITEGIC>MOL_PROPERTY
Angle
SciTegic.value.DoubleValue
0.376

@<SCITEGIC>MOL_PROPERTY
Pdih
SciTegic.value.DoubleValue
0.416

@<SCITEGIC>MOL_PROPERTY
Idih
SciTegic.value.DoubleValue
0.000

@<SCITEGIC>MOL_PROPERTY
Tether
SciTegic.value.DoubleValue
0.000

@<TRIPOS>MOLECULE
guest-1_confgen4.mol2 : confsearch ligand conformer 170
          17          16           1
SMALL
USER_CHARGES
 
@<TRIPOS>ATOM
       1    N1      20.214058   21.018873   23.051751 N.4        1 MOL1        -0.5891
       2    H1      20.619572   21.781354   22.500544 H          1 MOL1         0.3726
       3    H2      20.962504   20.643709   23.642284 H          1 MOL1         0.3726
       4    H3      19.524314   21.442431   23.680794 H          1 MOL1         0.3726
       5    C1      19.594543   19.950307   22.173273 C.3        1 MOL1         0.0314
       6    H4      18.788643   20.412262   21.596618 H          1 MOL1         0.0999
       7    H5      19.157107   19.190689   22.826319 H          1 MOL1         0.0999
       8    C2      20.605152   19.291977   21.214509 C.3        1 MOL1        -0.1308
       9    H6      21.067814   20.068417   20.590840 H          1 MOL1         0.1025
      10    H7      21.415444   18.829455   21.793635 H          1 MOL1         0.1025
      11    C3      19.953040   18.231607   20.296700 C.3        1 MOL1        -0.1243
      12    H8      20.706644   17.861427   19.587455 H          1 MOL1         0.1025
      13    H9      19.163815   18.700240   19.691979 H          1 MOL1         0.1025
      14    C4      19.365879   17.034361   21.078877 C.3        1 MOL1        -0.2258
      15    H10     20.133889   16.551296   21.696884 H          1 MOL1         0.1036
      16    H11     18.969542   16.279789   20.387107 H          1 MOL1         0.1036
      17    H12     18.543422   17.345579   21.735230 H          1 MOL1         0.1036
@<TRIPOS>BOND
    1     1     2    1
    2     1     3    1
    3     1     4    1
    4     1     5    1
    5     5     6    1
    6     5     7    1
    7     5     8    1
    8     8     9    1
    9     8    10    1
   10     8    11    1
   11    11    12    1
   12    11    13    1
   13    11    14    1
   14    14    15    1
   15    14    16    1
   16    14    17    1
@<TRIPOS>SUBSTRUCTURE
       1 MOL1            1 RESIDUE      1      MOL     
@<SCITEGIC>MOL_PROPERTY
VConf Rank
SciTegic.value.IntegerValue
170

@<SCITEGIC>MOL_PROPERTY
Conf_Id
SciTegic.value.IntegerValue
36

@<SCITEGIC>MOL_PROPERTY
Delta U+W
SciTegic.value.DoubleValue
0.275

@<SCITEGIC>MOL_PROPERTY
U+W
SciTegic.value.DoubleValue
-15.590

@<SCITEGIC>MOL_PROPERTY
Grad RMS
SciTegic.value.DoubleValue
0.000000

@<SCITEGIC>MOL_PROPERTY
U
SciTegic.value.DoubleValue
45.174

@<SCITEGIC>MOL_PROPERTY
W
SciTegic.value.DoubleValue
-60.765

@<SCITEGIC>MOL_PROPERTY
W(PB)
SciTegic.value.DoubleValue
-62.518

@<SCITEGIC>MOL_PROPERTY
W(SA)
SciTegic.value.DoubleValue
1.754

@<SCITEGIC>MOL_PROPERTY
Valence
SciTegic.value.DoubleValue
1.161

@<SCITEGIC>MOL_PROPERTY
Coulomb
SciTegic.value.DoubleValue
43.789

@<SCITEGIC>MOL_PROPERTY
VdW
SciTegic.value.DoubleValue
0.224

@<SCITEGIC>MOL_PROPERTY
VdW6
SciTegic.value.DoubleValue
-2.897

@<SCITEGIC>MOL_PROPERTY
VdW12
SciTegic.value.DoubleValue
3.121

@<SCITEGIC>MOL_PROPERTY
Bond
SciTegic.value.DoubleValue
0.100

@<SCITEGIC>MOL_PROPERTY
Angle
SciTegic.value.DoubleValue
0.500

@<SCITEGIC>MOL_PROPERTY
Pdih
SciTegic.value.DoubleValue
0.561

@<SCITEGIC>MOL_PROPERTY
Idih
SciTegic.value.DoubleValue
0.000

@<SCITEGIC>MOL_PROPERTY
Tether
SciTegic.value.DoubleValue
0.000

@<TRIPOS>MOLECULE
guest-1_confgen4.mol2 : confsearch ligand conformer 171
          17          16           1
SMALL
USER_CHARGES
 
@<TRIPOS>ATOM
       1    N1      21.339278   17.816152   21.949343 N.4        1 MOL1        -0.5891
       2    H1      21.685291   18.750662   21.717370 H          1 MOL1         0.3726
       3    H2      21.441605   17.239700   21.108682 H          1 MOL1         0.3726
       4    H3      21.971450   17.426264   22.655862 H          1 MOL1         0.3726
       5    C1      19.903358   17.853031   22.435969 C.3        1 MOL1         0.0314
       6    H4      19.866341   18.422587   23.368459 H          1 MOL1         0.0999
       7    H5      19.614412   16.822153   22.658088 H          1 MOL1         0.0999
       8    C2      18.904519   18.447502   21.420814 C.3        1 MOL1        -0.1308
       9    H6      19.107894   18.050697   20.417364 H          1 MOL1         0.1025
      10    H7      17.901649   18.089290   21.688734 H          1 MOL1         0.1025
      11    C3      18.864716   19.996752   21.390099 C.3        1 MOL1        -0.1243
      12    H8      18.598115   20.379414   22.385345 H          1 MOL1         0.1025
      13    H9      18.053490   20.308760   20.717378 H          1 MOL1         0.1025
      14    C4      20.178262   20.660520   20.917986 C.3        1 MOL1        -0.2258
      15    H10     20.973784   20.554215   21.664659 H          1 MOL1         0.1036
      16    H11     20.025826   21.736228   20.760597 H          1 MOL1         0.1036
      17    H12     20.523206   20.230790   19.968513 H          1 MOL1         0.1036
@<TRIPOS>BOND
    1     1     2    1
    2     1     3    1
    3     1     4    1
    4     1     5    1
    5     5     6    1
    6     5     7    1
    7     5     8    1
    8     8     9    1
    9     8    10    1
   10     8    11    1
   11    11    12    1
   12    11    13    1
   13    11    14    1
   14    14    15    1
   15    14    16    1
   16    14    17    1
@<TRIPOS>SUBSTRUCTURE
       1 MOL1            1 RESIDUE      1      MOL     
@<SCITEGIC>MOL_PROPERTY
VConf Rank
SciTegic.value.IntegerValue
171

@<SCITEGIC>MOL_PROPERTY
Conf_Id
SciTegic.value.IntegerValue
19

@<SCITEGIC>MOL_PROPERTY
Delta U+W
SciTegic.value.DoubleValue
2.662

@<SCITEGIC>MOL_PROPERTY
U+W
SciTegic.value.DoubleValue
-13.203

@<SCITEGIC>MOL_PROPERTY
Grad RMS
SciTegic.value.DoubleValue
0.000000

@<SCITEGIC>MOL_PROPERTY
U
SciTegic.value.DoubleValue
47.423

@<SCITEGIC>MOL_PROPERTY
W
SciTegic.value.DoubleValue
-60.626

@<SCITEGIC>MOL_PROPERTY
W(PB)
SciTegic.value.DoubleValue
-62.328

@<SCITEGIC>MOL_PROPERTY
W(SA)
SciTegic.value.DoubleValue
1.702

@<SCITEGIC>MOL_PROPERTY
Valence
SciTegic.value.DoubleValue
2.414

@<SCITEGIC>MOL_PROPERTY
Coulomb
SciTegic.value.DoubleValue
44.831

@<SCITEGIC>MOL_PROPERTY
VdW
SciTegic.value.DoubleValue
0.178

@<SCITEGIC>MOL_PROPERTY
VdW6
SciTegic.value.DoubleValue
-3.743

@<SCITEGIC>MOL_PROPERTY
VdW12
SciTegic.value.DoubleValue
3.921

@<SCITEGIC>MOL_PROPERTY
Bond
SciTegic.value.DoubleValue
0.138

@<SCITEGIC>MOL_PROPERTY
Angle
SciTegic.value.DoubleValue
0.941

@<SCITEGIC>MOL_PROPERTY
Pdih
SciTegic.value.DoubleValue
1.335

@<SCITEGIC>MOL_PROPERTY
Idih
SciTegic.value.DoubleValue
0.000

@<SCITEGIC>MOL_PROPERTY
Tether
SciTegic.value.DoubleValue
0.000

@<TRIPOS>MOLECULE
guest-1_confgen4.mol2 : confsearch ligand conformer 172
          17          16           1
SMALL
USER_CHARGES
 
@<TRIPOS>ATOM
       1    N1      18.094218   18.985864   21.092075 N.4        1 MOL1        -0.5891
       2    H1      17.336011   19.432615   20.566375 H          1 MOL1         0.3726
       3    H2      17.664945   18.259638   21.673282 H          1 MOL1         0.3726
       4    H3      18.694294   18.511714   20.412417 H          1 MOL1         0.3726
       5    C1      18.870389   19.988184   21.924511 C.3        1 MOL1         0.0314
       6    H4      18.160568   20.443942   22.620195 H          1 MOL1         0.0999
       7    H5      19.246338   20.773216   21.262930 H          1 MOL1         0.0999
       8    C2      20.038701   19.377232   22.726630 C.3        1 MOL1        -0.1308
       9    H6      20.274593   20.063965   23.550402 H          1 MOL1         0.1025
      10    H7      19.719728   18.438686   23.198983 H          1 MOL1         0.1025
      11    C3      21.334695   19.154535   21.905954 C.3        1 MOL1        -0.1243
      12    H8      22.125311   18.819299   22.591908 H          1 MOL1         0.1025
      13    H9      21.678584   20.112451   21.491035 H          1 MOL1         0.1025
      14    C4      21.199670   18.118685   20.766804 C.3        1 MOL1        -0.2258
      15    H10     20.767782   17.178002   21.132511 H          1 MOL1         0.1036
      16    H11     22.185712   17.889355   20.342205 H          1 MOL1         0.1036
      17    H12     20.577672   18.499463   19.948387 H          1 MOL1         0.1036
@<TRIPOS>BOND
    1     1     2    1
    2     1     3    1
    3     1     4    1
    4     1     5    1
    5     5     6    1
    6     5     7    1
    7     5     8    1
    8     8     9    1
    9     8    10    1
   10     8    11    1
   11    11    12    1
   12    11    13    1
   13    11    14    1
   14    14    15    1
   15    14    16    1
   16    14    17    1
@<TRIPOS>SUBSTRUCTURE
       1 MOL1            1 RESIDUE      1      MOL     
@<SCITEGIC>MOL_PROPERTY
VConf Rank
SciTegic.value.IntegerValue
172

@<SCITEGIC>MOL_PROPERTY
Conf_Id
SciTegic.value.IntegerValue
44

@<SCITEGIC>MOL_PROPERTY
Delta U+W
SciTegic.value.DoubleValue
2.712

@<SCITEGIC>MOL_PROPERTY
U+W
SciTegic.value.DoubleValue
-13.153

@<SCITEGIC>MOL_PROPERTY
Grad RMS
SciTegic.value.DoubleValue
0.000000

@<SCITEGIC>MOL_PROPERTY
U
SciTegic.value.DoubleValue
47.423

@<SCITEGIC>MOL_PROPERTY
W
SciTegic.value.DoubleValue
-60.576

@<SCITEGIC>MOL_PROPERTY
W(PB)
SciTegic.value.DoubleValue
-62.262

@<SCITEGIC>MOL_PROPERTY
W(SA)
SciTegic.value.DoubleValue
1.687

@<SCITEGIC>MOL_PROPERTY
Valence
SciTegic.value.DoubleValue
2.414

@<SCITEGIC>MOL_PROPERTY
Coulomb
SciTegic.value.DoubleValue
44.831

@<SCITEGIC>MOL_PROPERTY
VdW
SciTegic.value.DoubleValue
0.178

@<SCITEGIC>MOL_PROPERTY
VdW6
SciTegic.value.DoubleValue
-3.743

@<SCITEGIC>MOL_PROPERTY
VdW12
SciTegic.value.DoubleValue
3.922

@<SCITEGIC>MOL_PROPERTY
Bond
SciTegic.value.DoubleValue
0.138

@<SCITEGIC>MOL_PROPERTY
Angle
SciTegic.value.DoubleValue
0.941

@<SCITEGIC>MOL_PROPERTY
Pdih
SciTegic.value.DoubleValue
1.335

@<SCITEGIC>MOL_PROPERTY
Idih
SciTegic.value.DoubleValue
0.000

@<SCITEGIC>MOL_PROPERTY
Tether
SciTegic.value.DoubleValue
0.000

@<TRIPOS>MOLECULE
guest-1_confgen4.mol2 : confsearch ligand conformer 173
          17          16           1
SMALL
USER_CHARGES
 
@<TRIPOS>ATOM
       1    N1      21.800728   19.612865   21.871794 N.4        1 MOL1        -0.5891
       2    H1      21.233418   20.098512   22.572332 H          1 MOL1         0.3726
       3    H2      22.085815   20.309569   21.177023 H          1 MOL1         0.3726
       4    H3      22.653901   19.297243   22.344178 H          1 MOL1         0.3726
       5    C1      21.046377   18.459144   21.239543 C.3        1 MOL1         0.0314
       6    H4      20.799660   17.742571   22.027234 H          1 MOL1         0.0999
       7    H5      21.721305   17.966730   20.534180 H          1 MOL1         0.0999
       8    C2      19.759921   18.885566   20.502578 C.3        1 MOL1        -0.1308
       9    H6      20.022455   19.573285   19.687797 H          1 MOL1         0.1025
      10    H7      19.318795   18.000483   20.025253 H          1 MOL1         0.1025
      11    C3      18.701612   19.551841   21.416699 C.3        1 MOL1        -0.1243
      12    H8      17.832591   19.832779   20.805324 H          1 MOL1         0.1025
      13    H9      19.096733   20.489526   21.830559 H          1 MOL1         0.1025
      14    C4      18.230330   18.632833   22.566966 C.3        1 MOL1        -0.2258
      15    H10     17.829445   17.687811   22.178003 H          1 MOL1         0.1036
      16    H11     17.436034   19.119414   23.147744 H          1 MOL1         0.1036
      17    H12     19.049522   18.398589   23.258344 H          1 MOL1         0.1036
@<TRIPOS>BOND
    1     1     2    1
    2     1     3    1
    3     1     4    1
    4     1     5    1
    5     5     6    1
    6     5     7    1
    7     5     8    1
    8     8     9    1
    9     8    10    1
   10     8    11    1
   11    11    12    1
   12    11    13    1
   13    11    14    1
   14    14    15    1
   15    14    16    1
   16    14    17    1
@<TRIPOS>SUBSTRUCTURE
       1 MOL1            1 RESIDUE      1      MOL     
@<SCITEGIC>MOL_PROPERTY
VConf Rank
SciTegic.value.IntegerValue
173

@<SCITEGIC>MOL_PROPERTY
Conf_Id
SciTegic.value.IntegerValue
1

@<SCITEGIC>MOL_PROPERTY
Delta U+W
SciTegic.value.DoubleValue
0.685

@<SCITEGIC>MOL_PROPERTY
U+W
SciTegic.value.DoubleValue
-15.179

@<SCITEGIC>MOL_PROPERTY
Grad RMS
SciTegic.value.DoubleValue
0.000000

@<SCITEGIC>MOL_PROPERTY
U
SciTegic.value.DoubleValue
45.697

@<SCITEGIC>MOL_PROPERTY
W
SciTegic.value.DoubleValue
-60.876

@<SCITEGIC>MOL_PROPERTY
W(PB)
SciTegic.value.DoubleValue
-62.586

@<SCITEGIC>MOL_PROPERTY
W(SA)
SciTegic.value.DoubleValue
1.710

@<SCITEGIC>MOL_PROPERTY
Valence
SciTegic.value.DoubleValue
1.263

@<SCITEGIC>MOL_PROPERTY
Coulomb
SciTegic.value.DoubleValue
44.179

@<SCITEGIC>MOL_PROPERTY
VdW
SciTegic.value.DoubleValue
0.255

@<SCITEGIC>MOL_PROPERTY
VdW6
SciTegic.value.DoubleValue
-3.552

@<SCITEGIC>MOL_PROPERTY
VdW12
SciTegic.value.DoubleValue
3.807

@<SCITEGIC>MOL_PROPERTY
Bond
SciTegic.value.DoubleValue
0.125

@<SCITEGIC>MOL_PROPERTY
Angle
SciTegic.value.DoubleValue
0.616

@<SCITEGIC>MOL_PROPERTY
Pdih
SciTegic.value.DoubleValue
0.521

@<SCITEGIC>MOL_PROPERTY
Idih
SciTegic.value.DoubleValue
0.000

@<SCITEGIC>MOL_PROPERTY
Tether
SciTegic.value.DoubleValue
0.000

@<TRIPOS>MOLECULE
guest-1_confgen4.mol2 : confsearch ligand conformer 174
          17          16           1
SMALL
USER_CHARGES
 
@<TRIPOS>ATOM
       1    N1      19.419261   19.301896   19.697964 N.4        1 MOL1        -0.5891
       2    H1      19.103315   18.429199   19.264426 H          1 MOL1         0.3726
       3    H2      20.441972   19.268438   19.735261 H          1 MOL1         0.3726
       4    H3      19.167913   20.060882   19.056535 H          1 MOL1         0.3726
       5    C1      18.813159   19.502066   21.073620 C.3        1 MOL1         0.0314
       6    H4      17.728246   19.565728   20.953416 H          1 MOL1         0.0999
       7    H5      19.166468   20.459913   21.464140 H          1 MOL1         0.0999
       8    C2      19.151106   18.376333   22.072838 C.3        1 MOL1        -0.1308
       9    H6      18.620741   18.571487   23.014343 H          1 MOL1         0.1025
      10    H7      18.756528   17.425304   21.691263 H          1 MOL1         0.1025
      11    C3      20.665186   18.225169   22.363135 C.3        1 MOL1        -0.1243
      12    H8      21.198653   17.938912   21.446552 H          1 MOL1         0.1025
      13    H9      20.808892   17.395288   23.069215 H          1 MOL1         0.1025
      14    C4      21.298685   19.504505   22.956242 C.3        1 MOL1        -0.2258
      15    H10     22.353392   19.331474   23.206484 H          1 MOL1         0.1036
      16    H11     20.782576   19.810739   23.875437 H          1 MOL1         0.1036
      17    H12     21.259892   20.340708   22.246870 H          1 MOL1         0.1036
@<TRIPOS>BOND
    1     1     2    1
    2     1     3    1
    3     1     4    1
    4     1     5    1
    5     5     6    1
    6     5     7    1
    7     5     8    1
    8     8     9    1
    9     8    10    1
   10     8    11    1
   11    11    12    1
   12    11    13    1
   13    11    14    1
   14    14    15    1
   15    14    16    1
   16    14    17    1
@<TRIPOS>SUBSTRUCTURE
       1 MOL1            1 RESIDUE      1      MOL     
@<SCITEGIC>MOL_PROPERTY
VConf Rank
SciTegic.value.IntegerValue
174

@<SCITEGIC>MOL_PROPERTY
Conf_Id
SciTegic.value.IntegerValue
43

@<SCITEGIC>MOL_PROPERTY
Delta U+W
SciTegic.value.DoubleValue
0.642

@<SCITEGIC>MOL_PROPERTY
U+W
SciTegic.value.DoubleValue
-15.222

@<SCITEGIC>MOL_PROPERTY
Grad RMS
SciTegic.value.DoubleValue
0.000000

@<SCITEGIC>MOL_PROPERTY
U
SciTegic.value.DoubleValue
45.697

@<SCITEGIC>MOL_PROPERTY
W
SciTegic.value.DoubleValue
-60.919

@<SCITEGIC>MOL_PROPERTY
W(PB)
SciTegic.value.DoubleValue
-62.631

@<SCITEGIC>MOL_PROPERTY
W(SA)
SciTegic.value.DoubleValue
1.712

@<SCITEGIC>MOL_PROPERTY
Valence
SciTegic.value.DoubleValue
1.262

@<SCITEGIC>MOL_PROPERTY
Coulomb
SciTegic.value.DoubleValue
44.179

@<SCITEGIC>MOL_PROPERTY
VdW
SciTegic.value.DoubleValue
0.255

@<SCITEGIC>MOL_PROPERTY
VdW6
SciTegic.value.DoubleValue
-3.552

@<SCITEGIC>MOL_PROPERTY
VdW12
SciTegic.value.DoubleValue
3.807

@<SCITEGIC>MOL_PROPERTY
Bond
SciTegic.value.DoubleValue
0.125

@<SCITEGIC>MOL_PROPERTY
Angle
SciTegic.value.DoubleValue
0.616

@<SCITEGIC>MOL_PROPERTY
Pdih
SciTegic.value.DoubleValue
0.521

@<SCITEGIC>MOL_PROPERTY
Idih
SciTegic.value.DoubleValue
0.000

@<SCITEGIC>MOL_PROPERTY
Tether
SciTegic.value.DoubleValue
0.000

@<TRIPOS>MOLECULE
guest-1_confgen4.mol2 : confsearch ligand conformer 175
          17          16           1
SMALL
USER_CHARGES
 
@<TRIPOS>ATOM
       1    N1      17.756782   18.485753   22.793573 N.4        1 MOL1        -0.5891
       2    H1      18.165099   18.006894   23.602070 H          1 MOL1         0.3726
       3    H2      17.439507   17.760481   22.143177 H          1 MOL1         0.3726
       4    H3      16.918001   18.970441   23.128883 H          1 MOL1         0.3726
       5    C1      18.738020   19.441163   22.144173 C.3        1 MOL1         0.0314
       6    H4      19.007916   20.201270   22.882358 H          1 MOL1         0.0999
       7    H5      18.227653   19.936334   21.313597 H          1 MOL1         0.0999
       8    C2      20.011050   18.745689   21.628450 C.3        1 MOL1        -0.1308
       9    H6      20.512559   18.236633   22.462322 H          1 MOL1         0.1025
      10    H7      19.734997   17.972720   20.898858 H          1 MOL1         0.1025
      11    C3      20.982472   19.753258   20.975254 C.3        1 MOL1        -0.1243
      12    H8      21.256563   20.529128   21.704107 H          1 MOL1         0.1025
      13    H9      20.479987   20.265483   20.142512 H          1 MOL1         0.1025
      14    C4      22.261960   19.062771   20.455550 C.3        1 MOL1        -0.2258
      15    H10     22.938310   19.794943   19.995634 H          1 MOL1         0.1036
      16    H11     22.022431   18.304506   19.698671 H          1 MOL1         0.1036
      17    H12     22.805101   18.570181   21.272594 H          1 MOL1         0.1036
@<TRIPOS>BOND
    1     1     2    1
    2     1     3    1
    3     1     4    1
    4     1     5    1
    5     5     6    1
    6     5     7    1
    7     5     8    1
    8     8     9    1
    9     8    10    1
   10     8    11    1
   11    11    12    1
   12    11    13    1
   13    11    14    1
   14    14    15    1
   15    14    16    1
   16    14    17    1
@<TRIPOS>SUBSTRUCTURE
       1 MOL1            1 RESIDUE      1      MOL     
@<SCITEGIC>MOL_PROPERTY
VConf Rank
SciTegic.value.IntegerValue
175

@<SCITEGIC>MOL_PROPERTY
Conf_Id
SciTegic.value.IntegerValue
7

@<SCITEGIC>MOL_PROPERTY
Delta U+W
SciTegic.value.DoubleValue
0.000

@<SCITEGIC>MOL_PROPERTY
U+W
SciTegic.value.DoubleValue
-15.865

@<SCITEGIC>MOL_PROPERTY
Grad RMS
SciTegic.value.DoubleValue
0.000000

@<SCITEGIC>MOL_PROPERTY
U
SciTegic.value.DoubleValue
44.664

@<SCITEGIC>MOL_PROPERTY
W
SciTegic.value.DoubleValue
-60.529

@<SCITEGIC>MOL_PROPERTY
W(PB)
SciTegic.value.DoubleValue
-62.309

@<SCITEGIC>MOL_PROPERTY
W(SA)
SciTegic.value.DoubleValue
1.780

@<SCITEGIC>MOL_PROPERTY
Valence
SciTegic.value.DoubleValue
0.872

@<SCITEGIC>MOL_PROPERTY
Coulomb
SciTegic.value.DoubleValue
43.648

@<SCITEGIC>MOL_PROPERTY
VdW
SciTegic.value.DoubleValue
0.144

@<SCITEGIC>MOL_PROPERTY
VdW6
SciTegic.value.DoubleValue
-2.370

@<SCITEGIC>MOL_PROPERTY
VdW12
SciTegic.value.DoubleValue
2.515

@<SCITEGIC>MOL_PROPERTY
Bond
SciTegic.value.DoubleValue
0.080

@<SCITEGIC>MOL_PROPERTY
Angle
SciTegic.value.DoubleValue
0.376

@<SCITEGIC>MOL_PROPERTY
Pdih
SciTegic.value.DoubleValue
0.416

@<SCITEGIC>MOL_PROPERTY
Idih
SciTegic.value.DoubleValue
0.000

@<SCITEGIC>MOL_PROPERTY
Tether
SciTegic.value.DoubleValue
0.000

@<TRIPOS>MOLECULE
guest-1_confgen4.mol2 : confsearch ligand conformer 176
          17          16           1
SMALL
USER_CHARGES
 
@<TRIPOS>ATOM
       1    N1      18.690280   19.946825   19.730676 N.4        1 MOL1        -0.5891
       2    H1      18.760043   19.273037   18.962047 H          1 MOL1         0.3726
       3    H2      19.308067   20.730949   19.500163 H          1 MOL1         0.3726
       4    H3      17.732140   20.311078   19.719235 H          1 MOL1         0.3726
       5    C1      19.040061   19.322346   21.066728 C.3        1 MOL1         0.0314
       6    H4      18.325984   18.517476   21.260855 H          1 MOL1         0.0999
       7    H5      18.913519   20.086508   21.838014 H          1 MOL1         0.0999
       8    C2      20.475296   18.764331   21.118483 C.3        1 MOL1        -0.1308
       9    H6      20.603922   18.027157   20.314798 H          1 MOL1         0.1025
      10    H7      21.192409   19.572397   20.921847 H          1 MOL1         0.1025
      11    C3      20.806599   18.095155   22.472901 C.3        1 MOL1        -0.1243
      12    H8      21.809853   17.650036   22.415166 H          1 MOL1         0.1025
      13    H9      20.110333   17.264504   22.655695 H          1 MOL1         0.1025
      14    C4      20.760720   19.082253   23.661804 C.3        1 MOL1        -0.2258
      15    H10     21.444161   19.926201   23.501226 H          1 MOL1         0.1036
      16    H11     21.061221   18.580296   24.590645 H          1 MOL1         0.1036
      17    H12     19.750773   19.483223   23.814518 H          1 MOL1         0.1036
@<TRIPOS>BOND
    1     1     2    1
    2     1     3    1
    3     1     4    1
    4     1     5    1
    5     5     6    1
    6     5     7    1
    7     5     8    1
    8     8     9    1
    9     8    10    1
   10     8    11    1
   11    11    12    1
   12    11    13    1
   13    11    14    1
   14    14    15    1
   15    14    16    1
   16    14    17    1
@<TRIPOS>SUBSTRUCTURE
       1 MOL1            1 RESIDUE      1      MOL     
@<SCITEGIC>MOL_PROPERTY
VConf Rank
SciTegic.value.IntegerValue
176

@<SCITEGIC>MOL_PROPERTY
Conf_Id
SciTegic.value.IntegerValue
36

@<SCITEGIC>MOL_PROPERTY
Delta U+W
SciTegic.value.DoubleValue
0.275

@<SCITEGIC>MOL_PROPERTY
U+W
SciTegic.value.DoubleValue
-15.590

@<SCITEGIC>MOL_PROPERTY
Grad RMS
SciTegic.value.DoubleValue
0.000000

@<SCITEGIC>MOL_PROPERTY
U
SciTegic.value.DoubleValue
45.174

@<SCITEGIC>MOL_PROPERTY
W
SciTegic.value.DoubleValue
-60.765

@<SCITEGIC>MOL_PROPERTY
W(PB)
SciTegic.value.DoubleValue
-62.518

@<SCITEGIC>MOL_PROPERTY
W(SA)
SciTegic.value.DoubleValue
1.754

@<SCITEGIC>MOL_PROPERTY
Valence
SciTegic.value.DoubleValue
1.161

@<SCITEGIC>MOL_PROPERTY
Coulomb
SciTegic.value.DoubleValue
43.789

@<SCITEGIC>MOL_PROPERTY
VdW
SciTegic.value.DoubleValue
0.224

@<SCITEGIC>MOL_PROPERTY
VdW6
SciTegic.value.DoubleValue
-2.897

@<SCITEGIC>MOL_PROPERTY
VdW12
SciTegic.value.DoubleValue
3.121

@<SCITEGIC>MOL_PROPERTY
Bond
SciTegic.value.DoubleValue
0.100

@<SCITEGIC>MOL_PROPERTY
Angle
SciTegic.value.DoubleValue
0.500

@<SCITEGIC>MOL_PROPERTY
Pdih
SciTegic.value.DoubleValue
0.561

@<SCITEGIC>MOL_PROPERTY
Idih
SciTegic.value.DoubleValue
0.000

@<SCITEGIC>MOL_PROPERTY
Tether
SciTegic.value.DoubleValue
0.000

@<TRIPOS>MOLECULE
guest-1_confgen4.mol2 : confsearch ligand conformer 177
          17          16           1
SMALL
USER_CHARGES
 
@<TRIPOS>ATOM
       1    N1      19.189932   20.637305   21.186235 N.4        1 MOL1        -0.5891
       2    H1      18.522813   19.877193   21.031229 H          1 MOL1         0.3726
       3    H2      19.568473   20.897387   20.270514 H          1 MOL1         0.3726
       4    H3      18.656218   21.443403   21.527083 H          1 MOL1         0.3726
       5    C1      20.285152   20.235298   22.155210 C.3        1 MOL1         0.0314
       6    H4      19.831679   20.035747   23.129810 H          1 MOL1         0.0999
       7    H5      20.949801   21.096918   22.261936 H          1 MOL1         0.0999
       8    C2      21.113861   19.013845   21.704759 C.3        1 MOL1        -0.1308
       9    H6      21.363113   19.101459   20.638961 H          1 MOL1         0.1025
      10    H7      22.071517   19.042612   22.241335 H          1 MOL1         0.1025
      11    C3      20.447750   17.643960   21.991842 C.3        1 MOL1        -0.1243
      12    H8      20.261074   17.542526   23.070214 H          1 MOL1         0.1025
      13    H9      21.162192   16.850441   21.731286 H          1 MOL1         0.1025
      14    C4      19.133796   17.397239   21.216255 C.3        1 MOL1        -0.2258
      15    H10     18.321002   18.030841   21.589872 H          1 MOL1         0.1036
      16    H11     18.810981   16.354888   21.336473 H          1 MOL1         0.1036
      17    H12     19.263843   17.583657   20.142248 H          1 MOL1         0.1036
@<TRIPOS>BOND
    1     1     2    1
    2     1     3    1
    3     1     4    1
    4     1     5    1
    5     5     6    1
    6     5     7    1
    7     5     8    1
    8     8     9    1
    9     8    10    1
   10     8    11    1
   11    11    12    1
   12    11    13    1
   13    11    14    1
   14    14    15    1
   15    14    16    1
   16    14    17    1
@<TRIPOS>SUBSTRUCTURE
       1 MOL1            1 RESIDUE      1      MOL     
@<SCITEGIC>MOL_PROPERTY
VConf Rank
SciTegic.value.IntegerValue
177

@<SCITEGIC>MOL_PROPERTY
Conf_Id
SciTegic.value.IntegerValue
19

@<SCITEGIC>MOL_PROPERTY
Delta U+W
SciTegic.value.DoubleValue
2.662

@<SCITEGIC>MOL_PROPERTY
U+W
SciTegic.value.DoubleValue
-13.203

@<SCITEGIC>MOL_PROPERTY
Grad RMS
SciTegic.value.DoubleValue
0.000000

@<SCITEGIC>MOL_PROPERTY
U
SciTegic.value.DoubleValue
47.423

@<SCITEGIC>MOL_PROPERTY
W
SciTegic.value.DoubleValue
-60.626

@<SCITEGIC>MOL_PROPERTY
W(PB)
SciTegic.value.DoubleValue
-62.328

@<SCITEGIC>MOL_PROPERTY
W(SA)
SciTegic.value.DoubleValue
1.702

@<SCITEGIC>MOL_PROPERTY
Valence
SciTegic.value.DoubleValue
2.414

@<SCITEGIC>MOL_PROPERTY
Coulomb
SciTegic.value.DoubleValue
44.831

@<SCITEGIC>MOL_PROPERTY
VdW
SciTegic.value.DoubleValue
0.178

@<SCITEGIC>MOL_PROPERTY
VdW6
SciTegic.value.DoubleValue
-3.743

@<SCITEGIC>MOL_PROPERTY
VdW12
SciTegic.value.DoubleValue
3.921

@<SCITEGIC>MOL_PROPERTY
Bond
SciTegic.value.DoubleValue
0.138

@<SCITEGIC>MOL_PROPERTY
Angle
SciTegic.value.DoubleValue
0.941

@<SCITEGIC>MOL_PROPERTY
Pdih
SciTegic.value.DoubleValue
1.335

@<SCITEGIC>MOL_PROPERTY
Idih
SciTegic.value.DoubleValue
0.000

@<SCITEGIC>MOL_PROPERTY
Tether
SciTegic.value.DoubleValue
0.000

@<TRIPOS>MOLECULE
guest-1_confgen4.mol2 : confsearch ligand conformer 178
          17          16           1
SMALL
USER_CHARGES
 
@<TRIPOS>ATOM
       1    N1      18.829655   18.577258   20.145693 N.4        1 MOL1        -0.5891
       2    H1      17.930457   18.200196   19.829322 H          1 MOL1         0.3726
       3    H2      19.452488   18.581965   19.332343 H          1 MOL1         0.3726
       4    H3      18.671829   19.553135   20.409507 H          1 MOL1         0.3726
       5    C1      19.407210   17.771012   21.293054 C.3        1 MOL1         0.0314
       6    H4      19.545622   16.749570   20.928313 H          1 MOL1         0.0999
       7    H5      18.673707   17.743855   22.103324 H          1 MOL1         0.0999
       8    C2      20.754855   18.301489   21.826024 C.3        1 MOL1        -0.1308
       9    H6      21.254352   17.477541   22.352768 H          1 MOL1         0.1025
      10    H7      21.412701   18.565486   20.987410 H          1 MOL1         0.1025
      11    C3      20.632673   19.492154   22.810957 C.3        1 MOL1        -0.1243
      12    H8      21.633013   19.718425   23.206065 H          1 MOL1         0.1025
      13    H9      20.024275   19.194743   23.676648 H          1 MOL1         0.1025
      14    C4      20.046917   20.779534   22.187722 C.3        1 MOL1        -0.2258
      15    H10     20.574823   21.051308   21.264356 H          1 MOL1         0.1036
      16    H11     20.145577   21.619863   22.887201 H          1 MOL1         0.1036
      17    H12     18.979057   20.669312   21.965896 H          1 MOL1         0.1036
@<TRIPOS>BOND
    1     1     2    1
    2     1     3    1
    3     1     4    1
    4     1     5    1
    5     5     6    1
    6     5     7    1
    7     5     8    1
    8     8     9    1
    9     8    10    1
   10     8    11    1
   11    11    12    1
   12    11    13    1
   13    11    14    1
   14    14    15    1
   15    14    16    1
   16    14    17    1
@<TRIPOS>SUBSTRUCTURE
       1 MOL1            1 RESIDUE      1      MOL     
@<SCITEGIC>MOL_PROPERTY
VConf Rank
SciTegic.value.IntegerValue
178

@<SCITEGIC>MOL_PROPERTY
Conf_Id
SciTegic.value.IntegerValue
44

@<SCITEGIC>MOL_PROPERTY
Delta U+W
SciTegic.value.DoubleValue
2.712

@<SCITEGIC>MOL_PROPERTY
U+W
SciTegic.value.DoubleValue
-13.153

@<SCITEGIC>MOL_PROPERTY
Grad RMS
SciTegic.value.DoubleValue
0.000000

@<SCITEGIC>MOL_PROPERTY
U
SciTegic.value.DoubleValue
47.423

@<SCITEGIC>MOL_PROPERTY
W
SciTegic.value.DoubleValue
-60.576

@<SCITEGIC>MOL_PROPERTY
W(PB)
SciTegic.value.DoubleValue
-62.262

@<SCITEGIC>MOL_PROPERTY
W(SA)
SciTegic.value.DoubleValue
1.687

@<SCITEGIC>MOL_PROPERTY
Valence
SciTegic.value.DoubleValue
2.414

@<SCITEGIC>MOL_PROPERTY
Coulomb
SciTegic.value.DoubleValue
44.831

@<SCITEGIC>MOL_PROPERTY
VdW
SciTegic.value.DoubleValue
0.178

@<SCITEGIC>MOL_PROPERTY
VdW6
SciTegic.value.DoubleValue
-3.743

@<SCITEGIC>MOL_PROPERTY
VdW12
SciTegic.value.DoubleValue
3.922

@<SCITEGIC>MOL_PROPERTY
Bond
SciTegic.value.DoubleValue
0.138

@<SCITEGIC>MOL_PROPERTY
Angle
SciTegic.value.DoubleValue
0.941

@<SCITEGIC>MOL_PROPERTY
Pdih
SciTegic.value.DoubleValue
1.335

@<SCITEGIC>MOL_PROPERTY
Idih
SciTegic.value.DoubleValue
0.000

@<SCITEGIC>MOL_PROPERTY
Tether
SciTegic.value.DoubleValue
0.000

@<TRIPOS>MOLECULE
guest-1_confgen4.mol2 : confsearch ligand conformer 179
          17          16           1
SMALL
USER_CHARGES
 
@<TRIPOS>ATOM
       1    N1      21.375619   18.315463   20.458898 N.4        1 MOL1        -0.5891
       2    H1      21.471951   17.881734   21.381419 H          1 MOL1         0.3726
       3    H2      22.142878   18.986699   20.358228 H          1 MOL1         0.3726
       4    H3      21.531917   17.578396   19.763937 H          1 MOL1         0.3726
       5    C1      20.020811   18.974804   20.286782 C.3        1 MOL1         0.0314
       6    H4      19.253237   18.201722   20.376106 H          1 MOL1         0.0999
       7    H5      19.974671   19.381112   19.272719 H          1 MOL1         0.0999
       8    C2      19.743719   20.102820   21.302026 C.3        1 MOL1        -0.1308
       9    H6      20.495787   20.893064   21.176902 H          1 MOL1         0.1025
      10    H7      18.775442   20.561612   21.061706 H          1 MOL1         0.1025
      11    C3      19.732324   19.633119   22.778104 C.3        1 MOL1        -0.1243
      12    H8      19.543019   20.501737   23.424302 H          1 MOL1         0.1025
      13    H9      20.723897   19.254936   23.061679 H          1 MOL1         0.1025
      14    C4      18.662723   18.553635   23.061769 C.3        1 MOL1        -0.2258
      15    H10     17.661026   18.908887   22.787058 H          1 MOL1         0.1036
      16    H11     18.646324   18.299053   24.129424 H          1 MOL1         0.1036
      17    H12     18.863296   17.629969   22.504490 H          1 MOL1         0.1036
@<TRIPOS>BOND
    1     1     2    1
    2     1     3    1
    3     1     4    1
    4     1     5    1
    5     5     6    1
    6     5     7    1
    7     5     8    1
    8     8     9    1
    9     8    10    1
   10     8    11    1
   11    11    12    1
   12    11    13    1
   13    11    14    1
   14    14    15    1
   15    14    16    1
   16    14    17    1
@<TRIPOS>SUBSTRUCTURE
       1 MOL1            1 RESIDUE      1      MOL     
@<SCITEGIC>MOL_PROPERTY
VConf Rank
SciTegic.value.IntegerValue
179

@<SCITEGIC>MOL_PROPERTY
Conf_Id
SciTegic.value.IntegerValue
1

@<SCITEGIC>MOL_PROPERTY
Delta U+W
SciTegic.value.DoubleValue
0.685

@<SCITEGIC>MOL_PROPERTY
U+W
SciTegic.value.DoubleValue
-15.179

@<SCITEGIC>MOL_PROPERTY
Grad RMS
SciTegic.value.DoubleValue
0.000000

@<SCITEGIC>MOL_PROPERTY
U
SciTegic.value.DoubleValue
45.697

@<SCITEGIC>MOL_PROPERTY
W
SciTegic.value.DoubleValue
-60.876

@<SCITEGIC>MOL_PROPERTY
W(PB)
SciTegic.value.DoubleValue
-62.586

@<SCITEGIC>MOL_PROPERTY
W(SA)
SciTegic.value.DoubleValue
1.710

@<SCITEGIC>MOL_PROPERTY
Valence
SciTegic.value.DoubleValue
1.263

@<SCITEGIC>MOL_PROPERTY
Coulomb
SciTegic.value.DoubleValue
44.179

@<SCITEGIC>MOL_PROPERTY
VdW
SciTegic.value.DoubleValue
0.255

@<SCITEGIC>MOL_PROPERTY
VdW6
SciTegic.value.DoubleValue
-3.552

@<SCITEGIC>MOL_PROPERTY
VdW12
SciTegic.value.DoubleValue
3.807

@<SCITEGIC>MOL_PROPERTY
Bond
SciTegic.value.DoubleValue
0.125

@<SCITEGIC>MOL_PROPERTY
Angle
SciTegic.value.DoubleValue
0.616

@<SCITEGIC>MOL_PROPERTY
Pdih
SciTegic.value.DoubleValue
0.521

@<SCITEGIC>MOL_PROPERTY
Idih
SciTegic.value.DoubleValue
0.000

@<SCITEGIC>MOL_PROPERTY
Tether
SciTegic.value.DoubleValue
0.000

@<TRIPOS>MOLECULE
guest-1_confgen4.mol2 : confsearch ligand conformer 180
          17          16           1
SMALL
USER_CHARGES
 
@<TRIPOS>ATOM
       1    N1      18.827411   17.641403   20.698495 N.4        1 MOL1        -0.5891
       2    H1      18.632480   16.852790   21.322568 H          1 MOL1         0.3726
       3    H2      19.788028   17.530676   20.361741 H          1 MOL1         0.3726
       4    H3      18.211548   17.537079   19.885785 H          1 MOL1         0.3726
       5    C1      18.625326   18.974952   21.391795 C.3        1 MOL1         0.0314
       6    H4      17.575196   19.039749   21.689397 H          1 MOL1         0.0999
       7    H5      18.820050   19.768169   20.665369 H          1 MOL1         0.0999
       8    C2      19.520863   19.174045   22.632076 C.3        1 MOL1        -0.1308
       9    H6      19.261312   20.131651   23.102636 H          1 MOL1         0.1025
      10    H7      19.289064   18.396963   23.372454 H          1 MOL1         0.1025
      11    C3      21.038650   19.153288   22.323126 C.3        1 MOL1        -0.1243
      12    H8      21.331816   18.167826   21.936379 H          1 MOL1         0.1025
      13    H9      21.592797   19.287258   23.262742 H          1 MOL1         0.1025
      14    C4      21.468581   20.253078   21.325419 C.3        1 MOL1        -0.2258
      15    H10     22.557465   20.242922   21.186866 H          1 MOL1         0.1036
      16    H11     21.187032   21.249230   21.690766 H          1 MOL1         0.1036
      17    H12     21.008368   20.106961   20.340126 H          1 MOL1         0.1036
@<TRIPOS>BOND
    1     1     2    1
    2     1     3    1
    3     1     4    1
    4     1     5    1
    5     5     6    1
    6     5     7    1
    7     5     8    1
    8     8     9    1
    9     8    10    1
   10     8    11    1
   11    11    12    1
   12    11    13    1
   13    11    14    1
   14    14    15    1
   15    14    16    1
   16    14    17    1
@<TRIPOS>SUBSTRUCTURE
       1 MOL1            1 RESIDUE      1      MOL     
@<SCITEGIC>MOL_PROPERTY
VConf Rank
SciTegic.value.IntegerValue
180

@<SCITEGIC>MOL_PROPERTY
Conf_Id
SciTegic.value.IntegerValue
43

@<SCITEGIC>MOL_PROPERTY
Delta U+W
SciTegic.value.DoubleValue
0.642

@<SCITEGIC>MOL_PROPERTY
U+W
SciTegic.value.DoubleValue
-15.222

@<SCITEGIC>MOL_PROPERTY
Grad RMS
SciTegic.value.DoubleValue
0.000000

@<SCITEGIC>MOL_PROPERTY
U
SciTegic.value.DoubleValue
45.697

@<SCITEGIC>MOL_PROPERTY
W
SciTegic.value.DoubleValue
-60.919

@<SCITEGIC>MOL_PROPERTY
W(PB)
SciTegic.value.DoubleValue
-62.631

@<SCITEGIC>MOL_PROPERTY
W(SA)
SciTegic.value.DoubleValue
1.712

@<SCITEGIC>MOL_PROPERTY
Valence
SciTegic.value.DoubleValue
1.262

@<SCITEGIC>MOL_PROPERTY
Coulomb
SciTegic.value.DoubleValue
44.179

@<SCITEGIC>MOL_PROPERTY
VdW
SciTegic.value.DoubleValue
0.255

@<SCITEGIC>MOL_PROPERTY
VdW6
SciTegic.value.DoubleValue
-3.552

@<SCITEGIC>MOL_PROPERTY
VdW12
SciTegic.value.DoubleValue
3.807

@<SCITEGIC>MOL_PROPERTY
Bond
SciTegic.value.DoubleValue
0.125

@<SCITEGIC>MOL_PROPERTY
Angle
SciTegic.value.DoubleValue
0.616

@<SCITEGIC>MOL_PROPERTY
Pdih
SciTegic.value.DoubleValue
0.521

@<SCITEGIC>MOL_PROPERTY
Idih
SciTegic.value.DoubleValue
0.000

@<SCITEGIC>MOL_PROPERTY
Tether
SciTegic.value.DoubleValue
0.000

@<TRIPOS>MOLECULE
guest-1_confgen4.mol2 : confsearch ligand conformer 181
          17          16           1
SMALL
USER_CHARGES
 
@<TRIPOS>ATOM
       1    N1      20.635585   18.996495   19.128102 N.4        1 MOL1        -0.5891
       2    H1      21.460670   18.398162   19.232639 H          1 MOL1         0.3726
       3    H2      20.971235   19.961921   19.057476 H          1 MOL1         0.3726
       4    H3      20.212947   18.762921   18.223818 H          1 MOL1         0.3726
       5    C1      19.656053   18.817925   20.270900 C.3        1 MOL1         0.0314
       6    H4      19.318249   17.778024   20.266599 H          1 MOL1         0.0999
       7    H5      18.791920   19.459542   20.078219 H          1 MOL1         0.0999
       8    C2      20.258615   19.160541   21.645598 C.3        1 MOL1        -0.1308
       9    H6      21.135257   18.525007   21.828865 H          1 MOL1         0.1025
      10    H7      20.610600   20.200770   21.641183 H          1 MOL1         0.1025
      11    C3      19.229185   18.965330   22.780361 C.3        1 MOL1        -0.1243
      12    H8      18.873995   17.925062   22.783183 H          1 MOL1         0.1025
      13    H9      18.350016   19.598826   22.595778 H          1 MOL1         0.1025
      14    C4      19.826590   19.307095   24.162482 C.3        1 MOL1        -0.2258
      15    H10     19.080192   19.162044   24.954252 H          1 MOL1         0.1036
      16    H11     20.159569   20.352462   24.201739 H          1 MOL1         0.1036
      17    H12     20.687726   18.665519   24.390589 H          1 MOL1         0.1036
@<TRIPOS>BOND
    1     1     2    1
    2     1     3    1
    3     1     4    1
    4     1     5    1
    5     5     6    1
    6     5     7    1
    7     5     8    1
    8     8     9    1
    9     8    10    1
   10     8    11    1
   11    11    12    1
   12    11    13    1
   13    11    14    1
   14    14    15    1
   15    14    16    1
   16    14    17    1
@<TRIPOS>SUBSTRUCTURE
       1 MOL1            1 RESIDUE      1      MOL     
@<SCITEGIC>MOL_PROPERTY
VConf Rank
SciTegic.value.IntegerValue
181

@<SCITEGIC>MOL_PROPERTY
Conf_Id
SciTegic.value.IntegerValue
7

@<SCITEGIC>MOL_PROPERTY
Delta U+W
SciTegic.value.DoubleValue
0.000

@<SCITEGIC>MOL_PROPERTY
U+W
SciTegic.value.DoubleValue
-15.865

@<SCITEGIC>MOL_PROPERTY
Grad RMS
SciTegic.value.DoubleValue
0.000000

@<SCITEGIC>MOL_PROPERTY
U
SciTegic.value.DoubleValue
44.664

@<SCITEGIC>MOL_PROPERTY
W
SciTegic.value.DoubleValue
-60.529

@<SCITEGIC>MOL_PROPERTY
W(PB)
SciTegic.value.DoubleValue
-62.309

@<SCITEGIC>MOL_PROPERTY
W(SA)
SciTegic.value.DoubleValue
1.780

@<SCITEGIC>MOL_PROPERTY
Valence
SciTegic.value.DoubleValue
0.872

@<SCITEGIC>MOL_PROPERTY
Coulomb
SciTegic.value.DoubleValue
43.648

@<SCITEGIC>MOL_PROPERTY
VdW
SciTegic.value.DoubleValue
0.144

@<SCITEGIC>MOL_PROPERTY
VdW6
SciTegic.value.DoubleValue
-2.370

@<SCITEGIC>MOL_PROPERTY
VdW12
SciTegic.value.DoubleValue
2.515

@<SCITEGIC>MOL_PROPERTY
Bond
SciTegic.value.DoubleValue
0.080

@<SCITEGIC>MOL_PROPERTY
Angle
SciTegic.value.DoubleValue
0.376

@<SCITEGIC>MOL_PROPERTY
Pdih
SciTegic.value.DoubleValue
0.416

@<SCITEGIC>MOL_PROPERTY
Idih
SciTegic.value.DoubleValue
0.000

@<SCITEGIC>MOL_PROPERTY
Tether
SciTegic.value.DoubleValue
0.000

@<TRIPOS>MOLECULE
guest-1_confgen4.mol2 : confsearch ligand conformer 182
          17          16           1
SMALL
USER_CHARGES
 
@<TRIPOS>ATOM
       1    N1      21.903895   19.439335   20.275712 N.4        1 MOL1        -0.5891
       2    H1      22.644382   18.818067   20.615346 H          1 MOL1         0.3726
       3    H2      22.131609   20.384031   20.600278 H          1 MOL1         0.3726
       4    H3      21.974001   19.452329   19.253088 H          1 MOL1         0.3726
       5    C1      20.531672   18.994611   20.741096 C.3        1 MOL1         0.0314
       6    H4      20.344182   17.996790   20.335377 H          1 MOL1         0.0999
       7    H5      19.794403   19.681302   20.317153 H          1 MOL1         0.0999
       8    C2      20.391670   18.964076   22.275184 C.3        1 MOL1        -0.1308
       9    H6      21.162119   18.302920   22.693703 H          1 MOL1         0.1025
      10    H7      20.581630   19.965900   22.682801 H          1 MOL1         0.1025
      11    C3      19.000446   18.471333   22.737469 C.3        1 MOL1        -0.1243
      12    H8      18.994414   18.396762   23.834001 H          1 MOL1         0.1025
      13    H9      18.822517   17.455231   22.357917 H          1 MOL1         0.1025
      14    C4      17.850176   19.401842   22.289151 C.3        1 MOL1        -0.2258
      15    H10     18.007006   20.426388   22.650859 H          1 MOL1         0.1036
      16    H11     16.891077   19.048661   22.689649 H          1 MOL1         0.1036
      17    H12     17.760182   19.434194   21.196015 H          1 MOL1         0.1036
@<TRIPOS>BOND
    1     1     2    1
    2     1     3    1
    3     1     4    1
    4     1     5    1
    5     5     6    1
    6     5     7    1
    7     5     8    1
    8     8     9    1
    9     8    10    1
   10     8    11    1
   11    11    12    1
   12    11    13    1
   13    11    14    1
   14    14    15    1
   15    14    16    1
   16    14    17    1
@<TRIPOS>SUBSTRUCTURE
       1 MOL1            1 RESIDUE      1      MOL     
@<SCITEGIC>MOL_PROPERTY
VConf Rank
SciTegic.value.IntegerValue
182

@<SCITEGIC>MOL_PROPERTY
Conf_Id
SciTegic.value.IntegerValue
36

@<SCITEGIC>MOL_PROPERTY
Delta U+W
SciTegic.value.DoubleValue
0.275

@<SCITEGIC>MOL_PROPERTY
U+W
SciTegic.value.DoubleValue
-15.590

@<SCITEGIC>MOL_PROPERTY
Grad RMS
SciTegic.value.DoubleValue
0.000000

@<SCITEGIC>MOL_PROPERTY
U
SciTegic.value.DoubleValue
45.174

@<SCITEGIC>MOL_PROPERTY
W
SciTegic.value.DoubleValue
-60.765

@<SCITEGIC>MOL_PROPERTY
W(PB)
SciTegic.value.DoubleValue
-62.518

@<SCITEGIC>MOL_PROPERTY
W(SA)
SciTegic.value.DoubleValue
1.754

@<SCITEGIC>MOL_PROPERTY
Valence
SciTegic.value.DoubleValue
1.161

@<SCITEGIC>MOL_PROPERTY
Coulomb
SciTegic.value.DoubleValue
43.789

@<SCITEGIC>MOL_PROPERTY
VdW
SciTegic.value.DoubleValue
0.224

@<SCITEGIC>MOL_PROPERTY
VdW6
SciTegic.value.DoubleValue
-2.897

@<SCITEGIC>MOL_PROPERTY
VdW12
SciTegic.value.DoubleValue
3.121

@<SCITEGIC>MOL_PROPERTY
Bond
SciTegic.value.DoubleValue
0.100

@<SCITEGIC>MOL_PROPERTY
Angle
SciTegic.value.DoubleValue
0.500

@<SCITEGIC>MOL_PROPERTY
Pdih
SciTegic.value.DoubleValue
0.561

@<SCITEGIC>MOL_PROPERTY
Idih
SciTegic.value.DoubleValue
0.000

@<SCITEGIC>MOL_PROPERTY
Tether
SciTegic.value.DoubleValue
0.000

@<TRIPOS>MOLECULE
guest-1_confgen4.mol2 : confsearch ligand conformer 183
          17          16           1
SMALL
USER_CHARGES
 
@<TRIPOS>ATOM
       1    N1      20.247090   17.245254   21.031448 N.4        1 MOL1        -0.5891
       2    H1      20.986840   17.876640   20.713698 H          1 MOL1         0.3726
       3    H2      19.619442   17.092239   20.236385 H          1 MOL1         0.3726
       4    H3      20.687876   16.343569   21.240004 H          1 MOL1         0.3726
       5    C1      19.508889   17.803633   22.232823 C.3        1 MOL1         0.0314
       6    H4      20.210806   17.881377   23.067431 H          1 MOL1         0.0999
       7    H5      18.741160   17.073831   22.503965 H          1 MOL1         0.0999
       8    C2      18.837687   19.171124   21.985702 C.3        1 MOL1        -0.1308
       9    H6      18.329408   19.169618   21.012368 H          1 MOL1         0.1025
      10    H7      18.047576   19.297138   22.737827 H          1 MOL1         0.1025
      11    C3      19.794994   20.385593   22.092156 C.3        1 MOL1        -0.1243
      12    H8      20.249184   20.411589   23.092684 H          1 MOL1         0.1025
      13    H9      19.198767   21.304805   22.005251 H          1 MOL1         0.1025
      14    C4      20.908062   20.417803   21.020278 C.3        1 MOL1        -0.2258
      15    H10     21.654663   19.633690   21.191830 H          1 MOL1         0.1036
      16    H11     21.437604   21.378967   21.050394 H          1 MOL1         0.1036
      17    H12     20.493150   20.297844   20.011015 H          1 MOL1         0.1036
@<TRIPOS>BOND
    1     1     2    1
    2     1     3    1
    3     1     4    1
    4     1     5    1
    5     5     6    1
    6     5     7    1
    7     5     8    1
    8     8     9    1
    9     8    10    1
   10     8    11    1
   11    11    12    1
   12    11    13    1
   13    11    14    1
   14    14    15    1
   15    14    16    1
   16    14    17    1
@<TRIPOS>SUBSTRUCTURE
       1 MOL1            1 RESIDUE      1      MOL     
@<SCITEGIC>MOL_PROPERTY
VConf Rank
SciTegic.value.IntegerValue
183

@<SCITEGIC>MOL_PROPERTY
Conf_Id
SciTegic.value.IntegerValue
19

@<SCITEGIC>MOL_PROPERTY
Delta U+W
SciTegic.value.DoubleValue
2.662

@<SCITEGIC>MOL_PROPERTY
U+W
SciTegic.value.DoubleValue
-13.203

@<SCITEGIC>MOL_PROPERTY
Grad RMS
SciTegic.value.DoubleValue
0.000000

@<SCITEGIC>MOL_PROPERTY
U
SciTegic.value.DoubleValue
47.423

@<SCITEGIC>MOL_PROPERTY
W
SciTegic.value.DoubleValue
-60.626

@<SCITEGIC>MOL_PROPERTY
W(PB)
SciTegic.value.DoubleValue
-62.328

@<SCITEGIC>MOL_PROPERTY
W(SA)
SciTegic.value.DoubleValue
1.702

@<SCITEGIC>MOL_PROPERTY
Valence
SciTegic.value.DoubleValue
2.414

@<SCITEGIC>MOL_PROPERTY
Coulomb
SciTegic.value.DoubleValue
44.831

@<SCITEGIC>MOL_PROPERTY
VdW
SciTegic.value.DoubleValue
0.178

@<SCITEGIC>MOL_PROPERTY
VdW6
SciTegic.value.DoubleValue
-3.743

@<SCITEGIC>MOL_PROPERTY
VdW12
SciTegic.value.DoubleValue
3.921

@<SCITEGIC>MOL_PROPERTY
Bond
SciTegic.value.DoubleValue
0.138

@<SCITEGIC>MOL_PROPERTY
Angle
SciTegic.value.DoubleValue
0.941

@<SCITEGIC>MOL_PROPERTY
Pdih
SciTegic.value.DoubleValue
1.335

@<SCITEGIC>MOL_PROPERTY
Idih
SciTegic.value.DoubleValue
0.000

@<SCITEGIC>MOL_PROPERTY
Tether
SciTegic.value.DoubleValue
0.000

@<TRIPOS>MOLECULE
guest-1_confgen4.mol2 : confsearch ligand conformer 184
          17          16           1
SMALL
USER_CHARGES
 
@<TRIPOS>ATOM
       1    N1      20.203540   18.262116   19.953695 N.4        1 MOL1        -0.5891
       2    H1      19.825376   18.022913   19.031416 H          1 MOL1         0.3726
       3    H2      21.083823   17.748233   20.056197 H          1 MOL1         0.3726
       4    H3      20.436923   19.258127   19.935269 H          1 MOL1         0.3726
       5    C1      19.226660   17.934036   21.066397 C.3        1 MOL1         0.0314
       6    H4      19.034299   16.858848   21.016360 H          1 MOL1         0.0999
       7    H5      18.286035   18.455022   20.868659 H          1 MOL1         0.0999
       8    C2      19.733080   18.288907   22.480334 C.3        1 MOL1        -0.1308
       9    H6      19.161416   17.689267   23.201083 H          1 MOL1         0.1025
      10    H7      20.780111   17.977953   22.593310 H          1 MOL1         0.1025
      11    C3      19.569247   19.781268   22.865978 C.3        1 MOL1        -0.1243
      12    H8      19.860101   19.900436   23.919160 H          1 MOL1         0.1025
      13    H9      18.508372   20.063118   22.810064 H          1 MOL1         0.1025
      14    C4      20.407430   20.758137   22.010376 C.3        1 MOL1        -0.2258
      15    H10     21.459893   20.448801   21.968125 H          1 MOL1         0.1036
      16    H11     20.374064   21.766923   22.442111 H          1 MOL1         0.1036
      17    H12     20.018842   20.832740   20.988069 H          1 MOL1         0.1036
@<TRIPOS>BOND
    1     1     2    1
    2     1     3    1
    3     1     4    1
    4     1     5    1
    5     5     6    1
    6     5     7    1
    7     5     8    1
    8     8     9    1
    9     8    10    1
   10     8    11    1
   11    11    12    1
   12    11    13    1
   13    11    14    1
   14    14    15    1
   15    14    16    1
   16    14    17    1
@<TRIPOS>SUBSTRUCTURE
       1 MOL1            1 RESIDUE      1      MOL     
@<SCITEGIC>MOL_PROPERTY
VConf Rank
SciTegic.value.IntegerValue
184

@<SCITEGIC>MOL_PROPERTY
Conf_Id
SciTegic.value.IntegerValue
44

@<SCITEGIC>MOL_PROPERTY
Delta U+W
SciTegic.value.DoubleValue
2.712

@<SCITEGIC>MOL_PROPERTY
U+W
SciTegic.value.DoubleValue
-13.153

@<SCITEGIC>MOL_PROPERTY
Grad RMS
SciTegic.value.DoubleValue
0.000000

@<SCITEGIC>MOL_PROPERTY
U
SciTegic.value.DoubleValue
47.423

@<SCITEGIC>MOL_PROPERTY
W
SciTegic.value.DoubleValue
-60.576

@<SCITEGIC>MOL_PROPERTY
W(PB)
SciTegic.value.DoubleValue
-62.262

@<SCITEGIC>MOL_PROPERTY
W(SA)
SciTegic.value.DoubleValue
1.687

@<SCITEGIC>MOL_PROPERTY
Valence
SciTegic.value.DoubleValue
2.414

@<SCITEGIC>MOL_PROPERTY
Coulomb
SciTegic.value.DoubleValue
44.831

@<SCITEGIC>MOL_PROPERTY
VdW
SciTegic.value.DoubleValue
0.178

@<SCITEGIC>MOL_PROPERTY
VdW6
SciTegic.value.DoubleValue
-3.743

@<SCITEGIC>MOL_PROPERTY
VdW12
SciTegic.value.DoubleValue
3.922

@<SCITEGIC>MOL_PROPERTY
Bond
SciTegic.value.DoubleValue
0.138

@<SCITEGIC>MOL_PROPERTY
Angle
SciTegic.value.DoubleValue
0.941

@<SCITEGIC>MOL_PROPERTY
Pdih
SciTegic.value.DoubleValue
1.335

@<SCITEGIC>MOL_PROPERTY
Idih
SciTegic.value.DoubleValue
0.000

@<SCITEGIC>MOL_PROPERTY
Tether
SciTegic.value.DoubleValue
0.000

@<TRIPOS>MOLECULE
guest-1_confgen4.mol2 : confsearch ligand conformer 185
          17          16           1
SMALL
USER_CHARGES
 
@<TRIPOS>ATOM
       1    N1      21.755417   19.131847   22.349997 N.4        1 MOL1        -0.5891
       2    H1      21.540345   18.141659   22.202624 H          1 MOL1         0.3726
       3    H2      21.740566   19.297806   23.360747 H          1 MOL1         0.3726
       4    H3      22.721008   19.277875   22.038585 H          1 MOL1         0.3726
       5    C1      20.783048   20.033521   21.614237 C.3        1 MOL1         0.0314
       6    H4      20.870970   19.826450   20.544566 H          1 MOL1         0.0999
       7    H5      21.093854   21.067859   21.784775 H          1 MOL1         0.0999
       8    C2      19.315815   19.861263   22.058618 C.3        1 MOL1        -0.1308
       9    H6      19.230435   20.110715   23.124560 H          1 MOL1         0.1025
      10    H7      18.698183   20.594222   21.522796 H          1 MOL1         0.1025
      11    C3      18.746594   18.441193   21.815828 C.3        1 MOL1        -0.1243
      12    H8      17.708161   18.410226   22.174439 H          1 MOL1         0.1025
      13    H9      19.297116   17.705679   22.417991 H          1 MOL1         0.1025
      14    C4      18.776658   18.023056   20.327858 C.3        1 MOL1        -0.2258
      15    H10     18.231081   18.743337   19.704472 H          1 MOL1         0.1036
      16    H11     18.305438   17.040659   20.194384 H          1 MOL1         0.1036
      17    H12     19.803953   17.951394   19.949073 H          1 MOL1         0.1036
@<TRIPOS>BOND
    1     1     2    1
    2     1     3    1
    3     1     4    1
    4     1     5    1
    5     5     6    1
    6     5     7    1
    7     5     8    1
    8     8     9    1
    9     8    10    1
   10     8    11    1
   11    11    12    1
   12    11    13    1
   13    11    14    1
   14    14    15    1
   15    14    16    1
   16    14    17    1
@<TRIPOS>SUBSTRUCTURE
       1 MOL1            1 RESIDUE      1      MOL     
@<SCITEGIC>MOL_PROPERTY
VConf Rank
SciTegic.value.IntegerValue
185

@<SCITEGIC>MOL_PROPERTY
Conf_Id
SciTegic.value.IntegerValue
1

@<SCITEGIC>MOL_PROPERTY
Delta U+W
SciTegic.value.DoubleValue
0.685

@<SCITEGIC>MOL_PROPERTY
U+W
SciTegic.value.DoubleValue
-15.179

@<SCITEGIC>MOL_PROPERTY
Grad RMS
SciTegic.value.DoubleValue
0.000000

@<SCITEGIC>MOL_PROPERTY
U
SciTegic.value.DoubleValue
45.697

@<SCITEGIC>MOL_PROPERTY
W
SciTegic.value.DoubleValue
-60.876

@<SCITEGIC>MOL_PROPERTY
W(PB)
SciTegic.value.DoubleValue
-62.586

@<SCITEGIC>MOL_PROPERTY
W(SA)
SciTegic.value.DoubleValue
1.710

@<SCITEGIC>MOL_PROPERTY
Valence
SciTegic.value.DoubleValue
1.263

@<SCITEGIC>MOL_PROPERTY
Coulomb
SciTegic.value.DoubleValue
44.179

@<SCITEGIC>MOL_PROPERTY
VdW
SciTegic.value.DoubleValue
0.255

@<SCITEGIC>MOL_PROPERTY
VdW6
SciTegic.value.DoubleValue
-3.552

@<SCITEGIC>MOL_PROPERTY
VdW12
SciTegic.value.DoubleValue
3.807

@<SCITEGIC>MOL_PROPERTY
Bond
SciTegic.value.DoubleValue
0.125

@<SCITEGIC>MOL_PROPERTY
Angle
SciTegic.value.DoubleValue
0.616

@<SCITEGIC>MOL_PROPERTY
Pdih
SciTegic.value.DoubleValue
0.521

@<SCITEGIC>MOL_PROPERTY
Idih
SciTegic.value.DoubleValue
0.000

@<SCITEGIC>MOL_PROPERTY
Tether
SciTegic.value.DoubleValue
0.000

@<TRIPOS>MOLECULE
guest-1_confgen4.mol2 : confsearch ligand conformer 186
          17          16           1
SMALL
USER_CHARGES
 
@<TRIPOS>ATOM
       1    N1      20.350433   20.969478   21.653578 N.4        1 MOL1        -0.5891
       2    H1      21.250407   21.169953   21.207223 H          1 MOL1         0.3726
       3    H2      20.551405   20.591167   22.583600 H          1 MOL1         0.3726
       4    H3      19.879825   21.869504   21.791956 H          1 MOL1         0.3726
       5    C1      19.509806   20.014493   20.828225 C.3        1 MOL1         0.0314
       6    H4      19.303591   20.496523   19.868715 H          1 MOL1         0.0999
       7    H5      18.557362   19.867918   21.344143 H          1 MOL1         0.0999
       8    C2      20.182328   18.648566   20.579469 C.3        1 MOL1        -0.1308
       9    H6      19.533767   18.051856   19.924405 H          1 MOL1         0.1025
      10    H7      21.117568   18.802945   20.025176 H          1 MOL1         0.1025
      11    C3      20.477034   17.846787   21.871699 C.3        1 MOL1        -0.1243
      12    H8      21.198009   18.390448   22.497225 H          1 MOL1         0.1025
      13    H9      20.965876   16.901350   21.597682 H          1 MOL1         0.1025
      14    C4      19.205655   17.534832   22.693937 C.3        1 MOL1        -0.2258
      15    H10     19.452558   16.911495   23.563109 H          1 MOL1         0.1036
      16    H11     18.468845   16.989750   22.089730 H          1 MOL1         0.1036
      17    H12     18.731517   18.450974   23.067870 H          1 MOL1         0.1036
@<TRIPOS>BOND
    1     1     2    1
    2     1     3    1
    3     1     4    1
    4     1     5    1
    5     5     6    1
    6     5     7    1
    7     5     8    1
    8     8     9    1
    9     8    10    1
   10     8    11    1
   11    11    12    1
   12    11    13    1
   13    11    14    1
   14    14    15    1
   15    14    16    1
   16    14    17    1
@<TRIPOS>SUBSTRUCTURE
       1 MOL1            1 RESIDUE      1      MOL     
@<SCITEGIC>MOL_PROPERTY
VConf Rank
SciTegic.value.IntegerValue
186

@<SCITEGIC>MOL_PROPERTY
Conf_Id
SciTegic.value.IntegerValue
43

@<SCITEGIC>MOL_PROPERTY
Delta U+W
SciTegic.value.DoubleValue
0.642

@<SCITEGIC>MOL_PROPERTY
U+W
SciTegic.value.DoubleValue
-15.222

@<SCITEGIC>MOL_PROPERTY
Grad RMS
SciTegic.value.DoubleValue
0.000000

@<SCITEGIC>MOL_PROPERTY
U
SciTegic.value.DoubleValue
45.697

@<SCITEGIC>MOL_PROPERTY
W
SciTegic.value.DoubleValue
-60.919

@<SCITEGIC>MOL_PROPERTY
W(PB)
SciTegic.value.DoubleValue
-62.631

@<SCITEGIC>MOL_PROPERTY
W(SA)
SciTegic.value.DoubleValue
1.712

@<SCITEGIC>MOL_PROPERTY
Valence
SciTegic.value.DoubleValue
1.262

@<SCITEGIC>MOL_PROPERTY
Coulomb
SciTegic.value.DoubleValue
44.179

@<SCITEGIC>MOL_PROPERTY
VdW
SciTegic.value.DoubleValue
0.255

@<SCITEGIC>MOL_PROPERTY
VdW6
SciTegic.value.DoubleValue
-3.552

@<SCITEGIC>MOL_PROPERTY
VdW12
SciTegic.value.DoubleValue
3.807

@<SCITEGIC>MOL_PROPERTY
Bond
SciTegic.value.DoubleValue
0.125

@<SCITEGIC>MOL_PROPERTY
Angle
SciTegic.value.DoubleValue
0.616

@<SCITEGIC>MOL_PROPERTY
Pdih
SciTegic.value.DoubleValue
0.521

@<SCITEGIC>MOL_PROPERTY
Idih
SciTegic.value.DoubleValue
0.000

@<SCITEGIC>MOL_PROPERTY
Tether
SciTegic.value.DoubleValue
0.000

@<TRIPOS>MOLECULE
guest-1_confgen4.mol2 : confsearch ligand conformer 187
          17          16           1
SMALL
USER_CHARGES
 
@<TRIPOS>ATOM
       1    N1      19.236894   19.002748   24.065560 N.4        1 MOL1        -0.5891
       2    H1      20.170177   18.892981   24.473762 H          1 MOL1         0.3726
       3    H2      18.802336   18.074986   24.054876 H          1 MOL1         0.3726
       4    H3      18.693661   19.576797   24.718456 H          1 MOL1         0.3726
       5    C1      19.290983   19.620536   22.682531 C.3        1 MOL1         0.0314
       6    H4      19.735403   20.615317   22.774310 H          1 MOL1         0.0999
       7    H5      18.264522   19.735751   22.323885 H          1 MOL1         0.0999
       8    C2      20.100103   18.783276   21.675266 C.3        1 MOL1        -0.1308
       9    H6      21.125946   18.656636   22.046209 H          1 MOL1         0.1025
      10    H7      19.660045   17.780157   21.597222 H          1 MOL1         0.1025
      11    C3      20.130163   19.447204   20.281058 C.3        1 MOL1        -0.1243
      12    H8      20.567517   20.452668   20.359085 H          1 MOL1         0.1025
      13    H9      19.103422   19.577194   19.910611 H          1 MOL1         0.1025
      14    C4      20.940180   18.612938   19.265269 C.3        1 MOL1        -0.2258
      15    H10     20.949431   19.101177   18.282118 H          1 MOL1         0.1036
      16    H11     20.505992   17.612471   19.139756 H          1 MOL1         0.1036
      17    H12     21.981633   18.494809   19.591811 H          1 MOL1         0.1036
@<TRIPOS>BOND
    1     1     2    1
    2     1     3    1
    3     1     4    1
    4     1     5    1
    5     5     6    1
    6     5     7    1
    7     5     8    1
    8     8     9    1
    9     8    10    1
   10     8    11    1
   11    11    12    1
   12    11    13    1
   13    11    14    1
   14    14    15    1
   15    14    16    1
   16    14    17    1
@<TRIPOS>SUBSTRUCTURE
       1 MOL1            1 RESIDUE      1      MOL     
@<SCITEGIC>MOL_PROPERTY
VConf Rank
SciTegic.value.IntegerValue
187

@<SCITEGIC>MOL_PROPERTY
Conf_Id
SciTegic.value.IntegerValue
7

@<SCITEGIC>MOL_PROPERTY
Delta U+W
SciTegic.value.DoubleValue
0.000

@<SCITEGIC>MOL_PROPERTY
U+W
SciTegic.value.DoubleValue
-15.865

@<SCITEGIC>MOL_PROPERTY
Grad RMS
SciTegic.value.DoubleValue
0.000000

@<SCITEGIC>MOL_PROPERTY
U
SciTegic.value.DoubleValue
44.664

@<SCITEGIC>MOL_PROPERTY
W
SciTegic.value.DoubleValue
-60.529

@<SCITEGIC>MOL_PROPERTY
W(PB)
SciTegic.value.DoubleValue
-62.309

@<SCITEGIC>MOL_PROPERTY
W(SA)
SciTegic.value.DoubleValue
1.780

@<SCITEGIC>MOL_PROPERTY
Valence
SciTegic.value.DoubleValue
0.872

@<SCITEGIC>MOL_PROPERTY
Coulomb
SciTegic.value.DoubleValue
43.648

@<SCITEGIC>MOL_PROPERTY
VdW
SciTegic.value.DoubleValue
0.144

@<SCITEGIC>MOL_PROPERTY
VdW6
SciTegic.value.DoubleValue
-2.370

@<SCITEGIC>MOL_PROPERTY
VdW12
SciTegic.value.DoubleValue
2.515

@<SCITEGIC>MOL_PROPERTY
Bond
SciTegic.value.DoubleValue
0.080

@<SCITEGIC>MOL_PROPERTY
Angle
SciTegic.value.DoubleValue
0.376

@<SCITEGIC>MOL_PROPERTY
Pdih
SciTegic.value.DoubleValue
0.416

@<SCITEGIC>MOL_PROPERTY
Idih
SciTegic.value.DoubleValue
0.000

@<SCITEGIC>MOL_PROPERTY
Tether
SciTegic.value.DoubleValue
0.000

@<TRIPOS>MOLECULE
guest-1_confgen4.mol2 : confsearch ligand conformer 188
          17          16           1
SMALL
USER_CHARGES
 
@<TRIPOS>ATOM
       1    N1      20.929027   16.943521   21.180861 N.4        1 MOL1        -0.5891
       2    H1      20.866244   16.372816   22.029390 H          1 MOL1         0.3726
       3    H2      21.901561   17.255288   21.099461 H          1 MOL1         0.3726
       4    H3      20.751222   16.317377   20.388919 H          1 MOL1         0.3726
       5    C1      19.959777   18.108520   21.207092 C.3        1 MOL1         0.0314
       6    H4      18.945873   17.703364   21.264136 H          1 MOL1         0.0999
       7    H5      20.060052   18.650127   20.262928 H          1 MOL1         0.0999
       8    C2      20.199520   19.070816   22.386274 C.3        1 MOL1        -0.1308
       9    H6      20.136242   18.509054   23.327707 H          1 MOL1         0.1025
      10    H7      21.218431   19.476442   22.329901 H          1 MOL1         0.1025
      11    C3      19.179978   20.233180   22.424347 C.3        1 MOL1        -0.1243
      12    H8      19.355628   20.832558   23.328711 H          1 MOL1         0.1025
      13    H9      18.161521   19.829665   22.514359 H          1 MOL1         0.1025
      14    C4      19.266189   21.153382   21.185092 C.3        1 MOL1        -0.2258
      15    H10     20.276952   21.565592   21.068621 H          1 MOL1         0.1036
      16    H11     18.570075   21.996546   21.282597 H          1 MOL1         0.1036
      17    H12     19.007091   20.615525   20.264403 H          1 MOL1         0.1036
@<TRIPOS>BOND
    1     1     2    1
    2     1     3    1
    3     1     4    1
    4     1     5    1
    5     5     6    1
    6     5     7    1
    7     5     8    1
    8     8     9    1
    9     8    10    1
   10     8    11    1
   11    11    12    1
   12    11    13    1
   13    11    14    1
   14    14    15    1
   15    14    16    1
   16    14    17    1
@<TRIPOS>SUBSTRUCTURE
       1 MOL1            1 RESIDUE      1      MOL     
@<SCITEGIC>MOL_PROPERTY
VConf Rank
SciTegic.value.IntegerValue
188

@<SCITEGIC>MOL_PROPERTY
Conf_Id
SciTegic.value.IntegerValue
36

@<SCITEGIC>MOL_PROPERTY
Delta U+W
SciTegic.value.DoubleValue
0.275

@<SCITEGIC>MOL_PROPERTY
U+W
SciTegic.value.DoubleValue
-15.590

@<SCITEGIC>MOL_PROPERTY
Grad RMS
SciTegic.value.DoubleValue
0.000000

@<SCITEGIC>MOL_PROPERTY
U
SciTegic.value.DoubleValue
45.174

@<SCITEGIC>MOL_PROPERTY
W
SciTegic.value.DoubleValue
-60.765

@<SCITEGIC>MOL_PROPERTY
W(PB)
SciTegic.value.DoubleValue
-62.518

@<SCITEGIC>MOL_PROPERTY
W(SA)
SciTegic.value.DoubleValue
1.754

@<SCITEGIC>MOL_PROPERTY
Valence
SciTegic.value.DoubleValue
1.161

@<SCITEGIC>MOL_PROPERTY
Coulomb
SciTegic.value.DoubleValue
43.789

@<SCITEGIC>MOL_PROPERTY
VdW
SciTegic.value.DoubleValue
0.224

@<SCITEGIC>MOL_PROPERTY
VdW6
SciTegic.value.DoubleValue
-2.897

@<SCITEGIC>MOL_PROPERTY
VdW12
SciTegic.value.DoubleValue
3.121

@<SCITEGIC>MOL_PROPERTY
Bond
SciTegic.value.DoubleValue
0.100

@<SCITEGIC>MOL_PROPERTY
Angle
SciTegic.value.DoubleValue
0.500

@<SCITEGIC>MOL_PROPERTY
Pdih
SciTegic.value.DoubleValue
0.561

@<SCITEGIC>MOL_PROPERTY
Idih
SciTegic.value.DoubleValue
0.000

@<SCITEGIC>MOL_PROPERTY
Tether
SciTegic.value.DoubleValue
0.000

@<TRIPOS>MOLECULE
guest-1_confgen4.mol2 : confsearch ligand conformer 189
          17          16           1
SMALL
USER_CHARGES
 
@<TRIPOS>ATOM
       1    N1      21.648243   18.583249   22.208363 N.4        1 MOL1        -0.5891
       2    H1      20.944222   17.996834   22.663684 H          1 MOL1         0.3726
       3    H2      21.896319   19.324916   22.870078 H          1 MOL1         0.3726
       4    H3      22.485918   18.006318   22.080787 H          1 MOL1         0.3726
       5    C1      21.145506   19.146551   20.893077 C.3        1 MOL1         0.0314
       6    H4      20.962344   18.316059   20.206027 H          1 MOL1         0.0999
       7    H5      21.951837   19.757106   20.477638 H          1 MOL1         0.0999
       8    C2      19.873416   20.011286   21.018114 C.3        1 MOL1        -0.1308
       9    H6      19.962280   20.687924   21.878341 H          1 MOL1         0.1025
      10    H7      19.818903   20.656908   20.131521 H          1 MOL1         0.1025
      11    C3      18.552928   19.203778   21.101477 C.3        1 MOL1        -0.1243
      12    H8      18.445284   18.577763   20.204516 H          1 MOL1         0.1025
      13    H9      17.712498   19.911749   21.080431 H          1 MOL1         0.1025
      14    C4      18.421867   18.321735   22.363897 C.3        1 MOL1        -0.2258
      15    H10     19.108185   17.467592   22.330974 H          1 MOL1         0.1036
      16    H11     17.404988   17.915159   22.440102 H          1 MOL1         0.1036
      17    H12     18.618459   18.899790   23.276234 H          1 MOL1         0.1036
@<TRIPOS>BOND
    1     1     2    1
    2     1     3    1
    3     1     4    1
    4     1     5    1
    5     5     6    1
    6     5     7    1
    7     5     8    1
    8     8     9    1
    9     8    10    1
   10     8    11    1
   11    11    12    1
   12    11    13    1
   13    11    14    1
   14    14    15    1
   15    14    16    1
   16    14    17    1
@<TRIPOS>SUBSTRUCTURE
       1 MOL1            1 RESIDUE      1      MOL     
@<SCITEGIC>MOL_PROPERTY
VConf Rank
SciTegic.value.IntegerValue
189

@<SCITEGIC>MOL_PROPERTY
Conf_Id
SciTegic.value.IntegerValue
19

@<SCITEGIC>MOL_PROPERTY
Delta U+W
SciTegic.value.DoubleValue
2.662

@<SCITEGIC>MOL_PROPERTY
U+W
SciTegic.value.DoubleValue
-13.203

@<SCITEGIC>MOL_PROPERTY
Grad RMS
SciTegic.value.DoubleValue
0.000000

@<SCITEGIC>MOL_PROPERTY
U
SciTegic.value.DoubleValue
47.423

@<SCITEGIC>MOL_PROPERTY
W
SciTegic.value.DoubleValue
-60.626

@<SCITEGIC>MOL_PROPERTY
W(PB)
SciTegic.value.DoubleValue
-62.328

@<SCITEGIC>MOL_PROPERTY
W(SA)
SciTegic.value.DoubleValue
1.702

@<SCITEGIC>MOL_PROPERTY
Valence
SciTegic.value.DoubleValue
2.414

@<SCITEGIC>MOL_PROPERTY
Coulomb
SciTegic.value.DoubleValue
44.831

@<SCITEGIC>MOL_PROPERTY
VdW
SciTegic.value.DoubleValue
0.178

@<SCITEGIC>MOL_PROPERTY
VdW6
SciTegic.value.DoubleValue
-3.743

@<SCITEGIC>MOL_PROPERTY
VdW12
SciTegic.value.DoubleValue
3.921

@<SCITEGIC>MOL_PROPERTY
Bond
SciTegic.value.DoubleValue
0.138

@<SCITEGIC>MOL_PROPERTY
Angle
SciTegic.value.DoubleValue
0.941

@<SCITEGIC>MOL_PROPERTY
Pdih
SciTegic.value.DoubleValue
1.335

@<SCITEGIC>MOL_PROPERTY
Idih
SciTegic.value.DoubleValue
0.000

@<SCITEGIC>MOL_PROPERTY
Tether
SciTegic.value.DoubleValue
0.000

@<TRIPOS>MOLECULE
guest-1_confgen4.mol2 : confsearch ligand conformer 190
          17          16           1
SMALL
USER_CHARGES
 
@<TRIPOS>ATOM
       1    N1      18.837222   19.859847   20.285352 N.4        1 MOL1        -0.5891
       2    H1      17.919615   19.899677   19.830121 H          1 MOL1         0.3726
       3    H2      19.482521   20.399583   19.700753 H          1 MOL1         0.3726
       4    H3      18.753606   20.354497   21.177077 H          1 MOL1         0.3726
       5    C1      19.310513   18.431776   20.476789 C.3        1 MOL1         0.0314
       6    H4      19.374029   17.980012   19.483103 H          1 MOL1         0.0999
       7    H5      18.553199   17.887606   21.047451 H          1 MOL1         0.0999
       8    C2      20.681079   18.305843   21.174858 C.3        1 MOL1        -0.1308
       9    H6      21.093862   17.318991   20.926707 H          1 MOL1         0.1025
      10    H7      21.383680   19.039594   20.758097 H          1 MOL1         0.1025
      11    C3      20.629160   18.425984   22.719389 C.3        1 MOL1        -0.1243
      12    H8      21.632534   18.217502   23.116587 H          1 MOL1         0.1025
      13    H9      19.972202   17.645770   23.128894 H          1 MOL1         0.1025
      14    C4      20.172094   19.808443   23.237826 C.3        1 MOL1        -0.2258
      15    H10     20.748476   20.618965   22.773080 H          1 MOL1         0.1036
      16    H11     20.319482   19.875382   24.323622 H          1 MOL1         0.1036
      17    H12     19.105938   19.977372   23.046897 H          1 MOL1         0.1036
@<TRIPOS>BOND
    1     1     2    1
    2     1     3    1
    3     1     4    1
    4     1     5    1
    5     5     6    1
    6     5     7    1
    7     5     8    1
    8     8     9    1
    9     8    10    1
   10     8    11    1
   11    11    12    1
   12    11    13    1
   13    11    14    1
   14    14    15    1
   15    14    16    1
   16    14    17    1
@<TRIPOS>SUBSTRUCTURE
       1 MOL1            1 RESIDUE      1      MOL     
@<SCITEGIC>MOL_PROPERTY
VConf Rank
SciTegic.value.IntegerValue
190

@<SCITEGIC>MOL_PROPERTY
Conf_Id
SciTegic.value.IntegerValue
44

@<SCITEGIC>MOL_PROPERTY
Delta U+W
SciTegic.value.DoubleValue
2.712

@<SCITEGIC>MOL_PROPERTY
U+W
SciTegic.value.DoubleValue
-13.153

@<SCITEGIC>MOL_PROPERTY
Grad RMS
SciTegic.value.DoubleValue
0.000000

@<SCITEGIC>MOL_PROPERTY
U
SciTegic.value.DoubleValue
47.423

@<SCITEGIC>MOL_PROPERTY
W
SciTegic.value.DoubleValue
-60.576

@<SCITEGIC>MOL_PROPERTY
W(PB)
SciTegic.value.DoubleValue
-62.262

@<SCITEGIC>MOL_PROPERTY
W(SA)
SciTegic.value.DoubleValue
1.687

@<SCITEGIC>MOL_PROPERTY
Valence
SciTegic.value.DoubleValue
2.414

@<SCITEGIC>MOL_PROPERTY
Coulomb
SciTegic.value.DoubleValue
44.831

@<SCITEGIC>MOL_PROPERTY
VdW
SciTegic.value.DoubleValue
0.178

@<SCITEGIC>MOL_PROPERTY
VdW6
SciTegic.value.DoubleValue
-3.743

@<SCITEGIC>MOL_PROPERTY
VdW12
SciTegic.value.DoubleValue
3.922

@<SCITEGIC>MOL_PROPERTY
Bond
SciTegic.value.DoubleValue
0.138

@<SCITEGIC>MOL_PROPERTY
Angle
SciTegic.value.DoubleValue
0.941

@<SCITEGIC>MOL_PROPERTY
Pdih
SciTegic.value.DoubleValue
1.335

@<SCITEGIC>MOL_PROPERTY
Idih
SciTegic.value.DoubleValue
0.000

@<SCITEGIC>MOL_PROPERTY
Tether
SciTegic.value.DoubleValue
0.000

@<TRIPOS>MOLECULE
guest-1_confgen4.mol2 : confsearch ligand conformer 191
          17          16           1
SMALL
USER_CHARGES
 
@<TRIPOS>ATOM
       1    N1      19.549741   20.884271   22.234521 N.4        1 MOL1        -0.5891
       2    H1      18.644280   20.440737   22.056012 H          1 MOL1         0.3726
       3    H2      19.700312   21.574562   21.492763 H          1 MOL1         0.3726
       4    H3      19.459634   21.405643   23.112428 H          1 MOL1         0.3726
       5    C1      20.671799   19.865906   22.295956 C.3        1 MOL1         0.0314
       6    H4      20.464322   19.181646   23.122724 H          1 MOL1         0.0999
       7    H5      21.596349   20.402608   22.525516 H          1 MOL1         0.0999
       8    C2      20.857240   19.064127   20.991087 C.3        1 MOL1        -0.1308
       9    H6      21.105240   19.755901   20.175185 H          1 MOL1         0.1025
      10    H7      21.726256   18.402713   21.105746 H          1 MOL1         0.1025
      11    C3      19.622851   18.218310   20.590546 C.3        1 MOL1        -0.1243
      12    H8      19.841668   17.697516   19.647785 H          1 MOL1         0.1025
      13    H9      18.766844   18.874538   20.382531 H          1 MOL1         0.1025
      14    C4      19.230651   17.174661   21.661421 C.3        1 MOL1        -0.2258
      15    H10     20.070973   16.505038   21.886213 H          1 MOL1         0.1036
      16    H11     18.395155   16.556264   21.308574 H          1 MOL1         0.1036
      17    H12     18.915328   17.654321   22.596540 H          1 MOL1         0.1036
@<TRIPOS>BOND
    1     1     2    1
    2     1     3    1
    3     1     4    1
    4     1     5    1
    5     5     6    1
    6     5     7    1
    7     5     8    1
    8     8     9    1
    9     8    10    1
   10     8    11    1
   11    11    12    1
   12    11    13    1
   13    11    14    1
   14    14    15    1
   15    14    16    1
   16    14    17    1
@<TRIPOS>SUBSTRUCTURE
       1 MOL1            1 RESIDUE      1      MOL     
@<SCITEGIC>MOL_PROPERTY
VConf Rank
SciTegic.value.IntegerValue
191

@<SCITEGIC>MOL_PROPERTY
Conf_Id
SciTegic.value.IntegerValue
1

@<SCITEGIC>MOL_PROPERTY
Delta U+W
SciTegic.value.DoubleValue
0.685

@<SCITEGIC>MOL_PROPERTY
U+W
SciTegic.value.DoubleValue
-15.179

@<SCITEGIC>MOL_PROPERTY
Grad RMS
SciTegic.value.DoubleValue
0.000000

@<SCITEGIC>MOL_PROPERTY
U
SciTegic.value.DoubleValue
45.697

@<SCITEGIC>MOL_PROPERTY
W
SciTegic.value.DoubleValue
-60.876

@<SCITEGIC>MOL_PROPERTY
W(PB)
SciTegic.value.DoubleValue
-62.586

@<SCITEGIC>MOL_PROPERTY
W(SA)
SciTegic.value.DoubleValue
1.710

@<SCITEGIC>MOL_PROPERTY
Valence
SciTegic.value.DoubleValue
1.263

@<SCITEGIC>MOL_PROPERTY
Coulomb
SciTegic.value.DoubleValue
44.179

@<SCITEGIC>MOL_PROPERTY
VdW
SciTegic.value.DoubleValue
0.255

@<SCITEGIC>MOL_PROPERTY
VdW6
SciTegic.value.DoubleValue
-3.552

@<SCITEGIC>MOL_PROPERTY
VdW12
SciTegic.value.DoubleValue
3.807

@<SCITEGIC>MOL_PROPERTY
Bond
SciTegic.value.DoubleValue
0.125

@<SCITEGIC>MOL_PROPERTY
Angle
SciTegic.value.DoubleValue
0.616

@<SCITEGIC>MOL_PROPERTY
Pdih
SciTegic.value.DoubleValue
0.521

@<SCITEGIC>MOL_PROPERTY
Idih
SciTegic.value.DoubleValue
0.000

@<SCITEGIC>MOL_PROPERTY
Tether
SciTegic.value.DoubleValue
0.000

@<TRIPOS>MOLECULE
guest-1_confgen4.mol2 : confsearch ligand conformer 192
          17          16           1
SMALL
USER_CHARGES
 
@<TRIPOS>ATOM
       1    N1      20.859584   17.294297   21.352480 N.4        1 MOL1        -0.5891
       2    H1      21.497530   17.321147   20.551430 H          1 MOL1         0.3726
       3    H2      19.912008   17.181689   20.981176 H          1 MOL1         0.3726
       4    H3      21.078064   16.442099   21.878496 H          1 MOL1         0.3726
       5    C1      20.981298   18.536007   22.214571 C.3        1 MOL1         0.0314
       6    H4      22.001995   18.571533   22.605025 H          1 MOL1         0.0999
       7    H5      20.299091   18.429187   23.061913 H          1 MOL1         0.0999
       8    C2      20.676001   19.848248   21.463081 C.3        1 MOL1        -0.1308
       9    H6      20.851234   20.691812   22.143887 H          1 MOL1         0.1025
      10    H7      21.392100   19.966672   20.639112 H          1 MOL1         0.1025
      11    C3      19.233006   19.934382   20.906390 C.3        1 MOL1        -0.1243
      12    H8      19.071240   19.150762   20.153778 H          1 MOL1         0.1025
      13    H9      19.114024   20.890930   20.378409 H          1 MOL1         0.1025
      14    C4      18.152256   19.830408   22.006829 C.3        1 MOL1        -0.2258
      15    H10     17.150905   19.961719   21.576687 H          1 MOL1         0.1036
      16    H11     18.292114   20.605289   22.771726 H          1 MOL1         0.1036
      17    H12     18.173536   18.851859   22.502750 H          1 MOL1         0.1036
@<TRIPOS>BOND
    1     1     2    1
    2     1     3    1
    3     1     4    1
    4     1     5    1
    5     5     6    1
    6     5     7    1
    7     5     8    1
    8     8     9    1
    9     8    10    1
   10     8    11    1
   11    11    12    1
   12    11    13    1
   13    11    14    1
   14    14    15    1
   15    14    16    1
   16    14    17    1
@<TRIPOS>SUBSTRUCTURE
       1 MOL1            1 RESIDUE      1      MOL     
@<SCITEGIC>MOL_PROPERTY
VConf Rank
SciTegic.value.IntegerValue
192

@<SCITEGIC>MOL_PROPERTY
Conf_Id
SciTegic.value.IntegerValue
43

@<SCITEGIC>MOL_PROPERTY
Delta U+W
SciTegic.value.DoubleValue
0.642

@<SCITEGIC>MOL_PROPERTY
U+W
SciTegic.value.DoubleValue
-15.222

@<SCITEGIC>MOL_PROPERTY
Grad RMS
SciTegic.value.DoubleValue
0.000000

@<SCITEGIC>MOL_PROPERTY
U
SciTegic.value.DoubleValue
45.697

@<SCITEGIC>MOL_PROPERTY
W
SciTegic.value.DoubleValue
-60.919

@<SCITEGIC>MOL_PROPERTY
W(PB)
SciTegic.value.DoubleValue
-62.631

@<SCITEGIC>MOL_PROPERTY
W(SA)
SciTegic.value.DoubleValue
1.712

@<SCITEGIC>MOL_PROPERTY
Valence
SciTegic.value.DoubleValue
1.262

@<SCITEGIC>MOL_PROPERTY
Coulomb
SciTegic.value.DoubleValue
44.179

@<SCITEGIC>MOL_PROPERTY
VdW
SciTegic.value.DoubleValue
0.255

@<SCITEGIC>MOL_PROPERTY
VdW6
SciTegic.value.DoubleValue
-3.552

@<SCITEGIC>MOL_PROPERTY
VdW12
SciTegic.value.DoubleValue
3.807

@<SCITEGIC>MOL_PROPERTY
Bond
SciTegic.value.DoubleValue
0.125

@<SCITEGIC>MOL_PROPERTY
Angle
SciTegic.value.DoubleValue
0.616

@<SCITEGIC>MOL_PROPERTY
Pdih
SciTegic.value.DoubleValue
0.521

@<SCITEGIC>MOL_PROPERTY
Idih
SciTegic.value.DoubleValue
0.000

@<SCITEGIC>MOL_PROPERTY
Tether
SciTegic.value.DoubleValue
0.000

@<TRIPOS>MOLECULE
guest-1_confgen4.mol2 : confsearch ligand conformer 193
          17          16           1
SMALL
USER_CHARGES
 
@<TRIPOS>ATOM
       1    N1      19.424033   21.028069   23.163010 N.4        1 MOL1        -0.5891
       2    H1      19.591291   21.781215   22.488850 H          1 MOL1         0.3726
       3    H2      20.259845   20.960311   23.751674 H          1 MOL1         0.3726
       4    H3      18.658530   21.338516   23.770082 H          1 MOL1         0.3726
       5    C1      19.103249   19.714203   22.478753 C.3        1 MOL1         0.0314
       6    H4      18.188149   19.851531   21.896296 H          1 MOL1         0.0999
       7    H5      18.907014   18.968797   23.254244 H          1 MOL1         0.0999
       8    C2      20.233008   19.217934   21.558089 C.3        1 MOL1        -0.1308
       9    H6      20.437823   19.975692   20.790075 H          1 MOL1         0.1025
      10    H7      21.154166   19.095854   22.143371 H          1 MOL1         0.1025
      11    C3      19.866069   17.878778   20.881674 C.3        1 MOL1        -0.1243
      12    H8      18.942235   17.999491   20.298335 H          1 MOL1         0.1025
      13    H9      19.657776   17.120709   21.649965 H          1 MOL1         0.1025
      14    C4      20.994725   17.374734   19.956455 C.3        1 MOL1        -0.2258
      15    H10     20.714734   16.423245   19.486007 H          1 MOL1         0.1036
      16    H11     21.923457   17.211406   20.518584 H          1 MOL1         0.1036
      17    H12     21.202304   18.097162   19.156320 H          1 MOL1         0.1036
@<TRIPOS>BOND
    1     1     2    1
    2     1     3    1
    3     1     4    1
    4     1     5    1
    5     5     6    1
    6     5     7    1
    7     5     8    1
    8     8     9    1
    9     8    10    1
   10     8    11    1
   11    11    12    1
   12    11    13    1
   13    11    14    1
   14    14    15    1
   15    14    16    1
   16    14    17    1
@<TRIPOS>SUBSTRUCTURE
       1 MOL1            1 RESIDUE      1      MOL     
@<SCITEGIC>MOL_PROPERTY
VConf Rank
SciTegic.value.IntegerValue
193

@<SCITEGIC>MOL_PROPERTY
Conf_Id
SciTegic.value.IntegerValue
7

@<SCITEGIC>MOL_PROPERTY
Delta U+W
SciTegic.value.DoubleValue
0.000

@<SCITEGIC>MOL_PROPERTY
U+W
SciTegic.value.DoubleValue
-15.865

@<SCITEGIC>MOL_PROPERTY
Grad RMS
SciTegic.value.DoubleValue
0.000000

@<SCITEGIC>MOL_PROPERTY
U
SciTegic.value.DoubleValue
44.664

@<SCITEGIC>MOL_PROPERTY
W
SciTegic.value.DoubleValue
-60.529

@<SCITEGIC>MOL_PROPERTY
W(PB)
SciTegic.value.DoubleValue
-62.309

@<SCITEGIC>MOL_PROPERTY
W(SA)
SciTegic.value.DoubleValue
1.780

@<SCITEGIC>MOL_PROPERTY
Valence
SciTegic.value.DoubleValue
0.872

@<SCITEGIC>MOL_PROPERTY
Coulomb
SciTegic.value.DoubleValue
43.648

@<SCITEGIC>MOL_PROPERTY
VdW
SciTegic.value.DoubleValue
0.144

@<SCITEGIC>MOL_PROPERTY
VdW6
SciTegic.value.DoubleValue
-2.370

@<SCITEGIC>MOL_PROPERTY
VdW12
SciTegic.value.DoubleValue
2.515

@<SCITEGIC>MOL_PROPERTY
Bond
SciTegic.value.DoubleValue
0.080

@<SCITEGIC>MOL_PROPERTY
Angle
SciTegic.value.DoubleValue
0.376

@<SCITEGIC>MOL_PROPERTY
Pdih
SciTegic.value.DoubleValue
0.416

@<SCITEGIC>MOL_PROPERTY
Idih
SciTegic.value.DoubleValue
0.000

@<SCITEGIC>MOL_PROPERTY
Tether
SciTegic.value.DoubleValue
0.000

@<TRIPOS>MOLECULE
guest-1_confgen4.mol2 : confsearch ligand conformer 194
          17          16           1
SMALL
USER_CHARGES
 
@<TRIPOS>ATOM
       1    N1      18.410847   20.460122   20.330444 N.4        1 MOL1        -0.5891
       2    H1      17.458486   20.106061   20.461965 H          1 MOL1         0.3726
       3    H2      18.715368   20.164679   19.397906 H          1 MOL1         0.3726
       4    H3      18.346535   21.483025   20.311008 H          1 MOL1         0.3726
       5    C1      19.351873   19.974941   21.415076 C.3        1 MOL1         0.0314
       6    H4      18.984357   20.350139   22.374017 H          1 MOL1         0.0999
       7    H5      20.334822   20.415217   21.228512 H          1 MOL1         0.0999
       8    C2      19.472234   18.439935   21.471883 C.3        1 MOL1        -0.1308
       9    H6      18.474339   18.006000   21.619475 H          1 MOL1         0.1025
      10    H7      19.839764   18.062970   20.508188 H          1 MOL1         0.1025
      11    C3      20.404256   17.956342   22.607436 C.3        1 MOL1        -0.1243
      12    H8      20.382561   16.858072   22.643674 H          1 MOL1         0.1025
      13    H9      20.019313   18.304894   23.576205 H          1 MOL1         0.1025
      14    C4      21.866426   18.426087   22.430362 C.3        1 MOL1        -0.2258
      15    H10     22.273564   18.095514   21.465953 H          1 MOL1         0.1036
      16    H11     22.502802   18.010538   23.222417 H          1 MOL1         0.1036
      17    H12     21.947834   19.519235   22.480280 H          1 MOL1         0.1036
@<TRIPOS>BOND
    1     1     2    1
    2     1     3    1
    3     1     4    1
    4     1     5    1
    5     5     6    1
    6     5     7    1
    7     5     8    1
    8     8     9    1
    9     8    10    1
   10     8    11    1
   11    11    12    1
   12    11    13    1
   13    11    14    1
   14    14    15    1
   15    14    16    1
   16    14    17    1
@<TRIPOS>SUBSTRUCTURE
       1 MOL1            1 RESIDUE      1      MOL     
@<SCITEGIC>MOL_PROPERTY
VConf Rank
SciTegic.value.IntegerValue
194

@<SCITEGIC>MOL_PROPERTY
Conf_Id
SciTegic.value.IntegerValue
36

@<SCITEGIC>MOL_PROPERTY
Delta U+W
SciTegic.value.DoubleValue
0.275

@<SCITEGIC>MOL_PROPERTY
U+W
SciTegic.value.DoubleValue
-15.590

@<SCITEGIC>MOL_PROPERTY
Grad RMS
SciTegic.value.DoubleValue
0.000000

@<SCITEGIC>MOL_PROPERTY
U
SciTegic.value.DoubleValue
45.174

@<SCITEGIC>MOL_PROPERTY
W
SciTegic.value.DoubleValue
-60.765

@<SCITEGIC>MOL_PROPERTY
W(PB)
SciTegic.value.DoubleValue
-62.518

@<SCITEGIC>MOL_PROPERTY
W(SA)
SciTegic.value.DoubleValue
1.754

@<SCITEGIC>MOL_PROPERTY
Valence
SciTegic.value.DoubleValue
1.161

@<SCITEGIC>MOL_PROPERTY
Coulomb
SciTegic.value.DoubleValue
43.789

@<SCITEGIC>MOL_PROPERTY
VdW
SciTegic.value.DoubleValue
0.224

@<SCITEGIC>MOL_PROPERTY
VdW6
SciTegic.value.DoubleValue
-2.897

@<SCITEGIC>MOL_PROPERTY
VdW12
SciTegic.value.DoubleValue
3.121

@<SCITEGIC>MOL_PROPERTY
Bond
SciTegic.value.DoubleValue
0.100

@<SCITEGIC>MOL_PROPERTY
Angle
SciTegic.value.DoubleValue
0.500

@<SCITEGIC>MOL_PROPERTY
Pdih
SciTegic.value.DoubleValue
0.561

@<SCITEGIC>MOL_PROPERTY
Idih
SciTegic.value.DoubleValue
0.000

@<SCITEGIC>MOL_PROPERTY
Tether
SciTegic.value.DoubleValue
0.000

@<TRIPOS>MOLECULE
guest-1_confgen4.mol2 : confsearch ligand conformer 195
          17          16           1
SMALL
USER_CHARGES
 
@<TRIPOS>ATOM
       1    N1      21.650323   19.433845   22.171661 N.4        1 MOL1        -0.5891
       2    H1      21.519830   18.419347   22.146951 H          1 MOL1         0.3726
       3    H2      21.555878   19.726064   23.148988 H          1 MOL1         0.3726
       4    H3      22.620338   19.620826   21.897926 H          1 MOL1         0.3726
       5    C1      20.662034   20.149943   21.271373 C.3        1 MOL1         0.0314
       6    H4      20.853819   19.851663   20.237183 H          1 MOL1         0.0999
       7    H5      20.867975   21.220282   21.357971 H          1 MOL1         0.0999
       8    C2      19.181600   19.892747   21.623198 C.3        1 MOL1        -0.1308
       9    H6      19.038223   19.951417   22.710272 H          1 MOL1         0.1025
      10    H7      18.588691   20.712681   21.196568 H          1 MOL1         0.1025
      11    C3      18.613223   18.558646   21.075632 C.3        1 MOL1        -0.1243
      12    H8      18.705228   18.539495   19.980557 H          1 MOL1         0.1025
      13    H9      17.535802   18.527451   21.290526 H          1 MOL1         0.1025
      14    C4      19.270436   17.292241   21.669913 C.3        1 MOL1        -0.2258
      15    H10     20.298410   17.166094   21.310701 H          1 MOL1         0.1036
      16    H11     18.711730   16.396552   21.368672 H          1 MOL1         0.1036
      17    H12     19.279657   17.325421   22.767168 H          1 MOL1         0.1036
@<TRIPOS>BOND
    1     1     2    1
    2     1     3    1
    3     1     4    1
    4     1     5    1
    5     5     6    1
    6     5     7    1
    7     5     8    1
    8     8     9    1
    9     8    10    1
   10     8    11    1
   11    11    12    1
   12    11    13    1
   13    11    14    1
   14    14    15    1
   15    14    16    1
   16    14    17    1
@<TRIPOS>SUBSTRUCTURE
       1 MOL1            1 RESIDUE      1      MOL     
@<SCITEGIC>MOL_PROPERTY
VConf Rank
SciTegic.value.IntegerValue
195

@<SCITEGIC>MOL_PROPERTY
Conf_Id
SciTegic.value.IntegerValue
19

@<SCITEGIC>MOL_PROPERTY
Delta U+W
SciTegic.value.DoubleValue
2.662

@<SCITEGIC>MOL_PROPERTY
U+W
SciTegic.value.DoubleValue
-13.203

@<SCITEGIC>MOL_PROPERTY
Grad RMS
SciTegic.value.DoubleValue
0.000000

@<SCITEGIC>MOL_PROPERTY
U
SciTegic.value.DoubleValue
47.423

@<SCITEGIC>MOL_PROPERTY
W
SciTegic.value.DoubleValue
-60.626

@<SCITEGIC>MOL_PROPERTY
W(PB)
SciTegic.value.DoubleValue
-62.328

@<SCITEGIC>MOL_PROPERTY
W(SA)
SciTegic.value.DoubleValue
1.702

@<SCITEGIC>MOL_PROPERTY
Valence
SciTegic.value.DoubleValue
2.414

@<SCITEGIC>MOL_PROPERTY
Coulomb
SciTegic.value.DoubleValue
44.831

@<SCITEGIC>MOL_PROPERTY
VdW
SciTegic.value.DoubleValue
0.178

@<SCITEGIC>MOL_PROPERTY
VdW6
SciTegic.value.DoubleValue
-3.743

@<SCITEGIC>MOL_PROPERTY
VdW12
SciTegic.value.DoubleValue
3.921

@<SCITEGIC>MOL_PROPERTY
Bond
SciTegic.value.DoubleValue
0.138

@<SCITEGIC>MOL_PROPERTY
Angle
SciTegic.value.DoubleValue
0.941

@<SCITEGIC>MOL_PROPERTY
Pdih
SciTegic.value.DoubleValue
1.335

@<SCITEGIC>MOL_PROPERTY
Idih
SciTegic.value.DoubleValue
0.000

@<SCITEGIC>MOL_PROPERTY
Tether
SciTegic.value.DoubleValue
0.000

@<TRIPOS>MOLECULE
guest-1_confgen4.mol2 : confsearch ligand conformer 196
          17          16           1
SMALL
USER_CHARGES
 
@<TRIPOS>ATOM
       1    N1      21.270759   20.289046   21.475114 N.4        1 MOL1        -0.5891
       2    H1      21.569640   21.209630   21.137449 H          1 MOL1         0.3726
       3    H2      22.117573   19.787860   21.760067 H          1 MOL1         0.3726
       4    H3      20.713899   20.443332   22.319476 H          1 MOL1         0.3726
       5    C1      20.492732   19.526442   20.420055 C.3        1 MOL1         0.0314
       6    H4      21.156220   19.403959   19.559638 H          1 MOL1         0.0999
       7    H5      19.641672   20.136737   20.106143 H          1 MOL1         0.0999
       8    C2      19.999250   18.137185   20.876181 C.3        1 MOL1        -0.1308
       9    H6      19.804797   17.538780   19.976212 H          1 MOL1         0.1025
      10    H7      20.798042   17.614330   21.418660 H          1 MOL1         0.1025
      11    C3      18.700298   18.162193   21.721641 C.3        1 MOL1        -0.1243
      12    H8      18.383777   17.124962   21.900404 H          1 MOL1         0.1025
      13    H9      17.891837   18.631095   21.143243 H          1 MOL1         0.1025
      14    C4      18.839043   18.876365   23.085308 C.3        1 MOL1        -0.2258
      15    H10     19.699686   18.494308   23.649647 H          1 MOL1         0.1036
      16    H11     17.941175   18.710483   23.694794 H          1 MOL1         0.1036
      17    H12     18.948810   19.960139   22.962571 H          1 MOL1         0.1036
@<TRIPOS>BOND
    1     1     2    1
    2     1     3    1
    3     1     4    1
    4     1     5    1
    5     5     6    1
    6     5     7    1
    7     5     8    1
    8     8     9    1
    9     8    10    1
   10     8    11    1
   11    11    12    1
   12    11    13    1
   13    11    14    1
   14    14    15    1
   15    14    16    1
   16    14    17    1
@<TRIPOS>SUBSTRUCTURE
       1 MOL1            1 RESIDUE      1      MOL     
@<SCITEGIC>MOL_PROPERTY
VConf Rank
SciTegic.value.IntegerValue
196

@<SCITEGIC>MOL_PROPERTY
Conf_Id
SciTegic.value.IntegerValue
44

@<SCITEGIC>MOL_PROPERTY
Delta U+W
SciTegic.value.DoubleValue
2.712

@<SCITEGIC>MOL_PROPERTY
U+W
SciTegic.value.DoubleValue
-13.153

@<SCITEGIC>MOL_PROPERTY
Grad RMS
SciTegic.value.DoubleValue
0.000000

@<SCITEGIC>MOL_PROPERTY
U
SciTegic.value.DoubleValue
47.423

@<SCITEGIC>MOL_PROPERTY
W
SciTegic.value.DoubleValue
-60.576

@<SCITEGIC>MOL_PROPERTY
W(PB)
SciTegic.value.DoubleValue
-62.262

@<SCITEGIC>MOL_PROPERTY
W(SA)
SciTegic.value.DoubleValue
1.687

@<SCITEGIC>MOL_PROPERTY
Valence
SciTegic.value.DoubleValue
2.414

@<SCITEGIC>MOL_PROPERTY
Coulomb
SciTegic.value.DoubleValue
44.831

@<SCITEGIC>MOL_PROPERTY
VdW
SciTegic.value.DoubleValue
0.178

@<SCITEGIC>MOL_PROPERTY
VdW6
SciTegic.value.DoubleValue
-3.743

@<SCITEGIC>MOL_PROPERTY
VdW12
SciTegic.value.DoubleValue
3.922

@<SCITEGIC>MOL_PROPERTY
Bond
SciTegic.value.DoubleValue
0.138

@<SCITEGIC>MOL_PROPERTY
Angle
SciTegic.value.DoubleValue
0.941

@<SCITEGIC>MOL_PROPERTY
Pdih
SciTegic.value.DoubleValue
1.335

@<SCITEGIC>MOL_PROPERTY
Idih
SciTegic.value.DoubleValue
0.000

@<SCITEGIC>MOL_PROPERTY
Tether
SciTegic.value.DoubleValue
0.000

@<TRIPOS>MOLECULE
guest-1_confgen4.mol2 : confsearch ligand conformer 197
          17          16           1
SMALL
USER_CHARGES
 
@<TRIPOS>ATOM
       1    N1      18.156856   18.131206   21.465284 N.4        1 MOL1        -0.5891
       2    H1      18.007167   19.115716   21.226999 H          1 MOL1         0.3726
       3    H2      17.742167   17.976794   22.389172 H          1 MOL1         0.3726
       4    H3      17.612130   17.575675   20.797956 H          1 MOL1         0.3726
       5    C1      19.627894   17.763657   21.436796 C.3        1 MOL1         0.0314
       6    H4      19.998050   17.923200   20.420757 H          1 MOL1         0.0999
       7    H5      19.708960   16.696822   21.662255 H          1 MOL1         0.0999
       8    C2      20.489136   18.563671   22.435876 C.3        1 MOL1        -0.1308
       9    H6      20.135468   18.365067   23.456280 H          1 MOL1         0.1025
      10    H7      21.519795   18.187462   22.391003 H          1 MOL1         0.1025
      11    C3      20.493261   20.091695   22.181555 C.3        1 MOL1        -0.1243
      12    H8      21.117106   20.575871   22.945948 H          1 MOL1         0.1025
      13    H9      19.481712   20.499165   22.313428 H          1 MOL1         0.1025
      14    C4      21.029021   20.471130   20.781988 C.3        1 MOL1        -0.2258
      15    H10     22.041044   20.075374   20.626252 H          1 MOL1         0.1036
      16    H11     21.075535   21.562152   20.670294 H          1 MOL1         0.1036
      17    H12     20.383339   20.084105   19.983705 H          1 MOL1         0.1036
@<TRIPOS>BOND
    1     1     2    1
    2     1     3    1
    3     1     4    1
    4     1     5    1
    5     5     6    1
    6     5     7    1
    7     5     8    1
    8     8     9    1
    9     8    10    1
   10     8    11    1
   11    11    12    1
   12    11    13    1
   13    11    14    1
   14    14    15    1
   15    14    16    1
   16    14    17    1
@<TRIPOS>SUBSTRUCTURE
       1 MOL1            1 RESIDUE      1      MOL     
@<SCITEGIC>MOL_PROPERTY
VConf Rank
SciTegic.value.IntegerValue
197

@<SCITEGIC>MOL_PROPERTY
Conf_Id
SciTegic.value.IntegerValue
1

@<SCITEGIC>MOL_PROPERTY
Delta U+W
SciTegic.value.DoubleValue
0.685

@<SCITEGIC>MOL_PROPERTY
U+W
SciTegic.value.DoubleValue
-15.179

@<SCITEGIC>MOL_PROPERTY
Grad RMS
SciTegic.value.DoubleValue
0.000000

@<SCITEGIC>MOL_PROPERTY
U
SciTegic.value.DoubleValue
45.697

@<SCITEGIC>MOL_PROPERTY
W
SciTegic.value.DoubleValue
-60.876

@<SCITEGIC>MOL_PROPERTY
W(PB)
SciTegic.value.DoubleValue
-62.586

@<SCITEGIC>MOL_PROPERTY
W(SA)
SciTegic.value.DoubleValue
1.710

@<SCITEGIC>MOL_PROPERTY
Valence
SciTegic.value.DoubleValue
1.263

@<SCITEGIC>MOL_PROPERTY
Coulomb
SciTegic.value.DoubleValue
44.179

@<SCITEGIC>MOL_PROPERTY
VdW
SciTegic.value.DoubleValue
0.255

@<SCITEGIC>MOL_PROPERTY
VdW6
SciTegic.value.DoubleValue
-3.552

@<SCITEGIC>MOL_PROPERTY
VdW12
SciTegic.value.DoubleValue
3.807

@<SCITEGIC>MOL_PROPERTY
Bond
SciTegic.value.DoubleValue
0.125

@<SCITEGIC>MOL_PROPERTY
Angle
SciTegic.value.DoubleValue
0.616

@<SCITEGIC>MOL_PROPERTY
Pdih
SciTegic.value.DoubleValue
0.521

@<SCITEGIC>MOL_PROPERTY
Idih
SciTegic.value.DoubleValue
0.000

@<SCITEGIC>MOL_PROPERTY
Tether
SciTegic.value.DoubleValue
0.000

@<TRIPOS>MOLECULE
guest-1_confgen4.mol2 : confsearch ligand conformer 198
          17          16           1
SMALL
USER_CHARGES
 
@<TRIPOS>ATOM
       1    N1      20.139758   20.203604   23.187344 N.4        1 MOL1        -0.5891
       2    H1      19.247053   20.354265   23.666673 H          1 MOL1         0.3726
       3    H2      20.146269   20.809652   22.362049 H          1 MOL1         0.3726
       4    H3      20.875502   20.544220   23.814505 H          1 MOL1         0.3726
       5    C1      20.344186   18.747367   22.816616 C.3        1 MOL1         0.0314
       6    H4      20.363800   18.167441   23.743351 H          1 MOL1         0.0999
       7    H5      21.322528   18.652942   22.338353 H          1 MOL1         0.0999
       8    C2      19.252554   18.183019   21.884000 C.3        1 MOL1        -0.1308
       9    H6      19.446139   17.114153   21.723211 H          1 MOL1         0.1025
      10    H7      18.279622   18.244755   22.389312 H          1 MOL1         0.1025
      11    C3      19.165385   18.896798   20.511965 C.3        1 MOL1        -0.1243
      12    H8      18.881401   19.948787   20.650984 H          1 MOL1         0.1025
      13    H9      18.355989   18.439240   19.925942 H          1 MOL1         0.1025
      14    C4      20.479725   18.814967   19.702266 C.3        1 MOL1        -0.2258
      15    H10     20.352302   19.275088   18.713823 H          1 MOL1         0.1036
      16    H11     20.784384   17.771547   19.548885 H          1 MOL1         0.1036
      17    H12     21.299391   19.340195   20.208460 H          1 MOL1         0.1036
@<TRIPOS>BOND
    1     1     2    1
    2     1     3    1
    3     1     4    1
    4     1     5    1
    5     5     6    1
    6     5     7    1
    7     5     8    1
    8     8     9    1
    9     8    10    1
   10     8    11    1
   11    11    12    1
   12    11    13    1
   13    11    14    1
   14    14    15    1
   15    14    16    1
   16    14    17    1
@<TRIPOS>SUBSTRUCTURE
       1 MOL1            1 RESIDUE      1      MOL     
@<SCITEGIC>MOL_PROPERTY
VConf Rank
SciTegic.value.IntegerValue
198

@<SCITEGIC>MOL_PROPERTY
Conf_Id
SciTegic.value.IntegerValue
43

@<SCITEGIC>MOL_PROPERTY
Delta U+W
SciTegic.value.DoubleValue
0.642

@<SCITEGIC>MOL_PROPERTY
U+W
SciTegic.value.DoubleValue
-15.222

@<SCITEGIC>MOL_PROPERTY
Grad RMS
SciTegic.value.DoubleValue
0.000000

@<SCITEGIC>MOL_PROPERTY
U
SciTegic.value.DoubleValue
45.697

@<SCITEGIC>MOL_PROPERTY
W
SciTegic.value.DoubleValue
-60.919

@<SCITEGIC>MOL_PROPERTY
W(PB)
SciTegic.value.DoubleValue
-62.631

@<SCITEGIC>MOL_PROPERTY
W(SA)
SciTegic.value.DoubleValue
1.712

@<SCITEGIC>MOL_PROPERTY
Valence
SciTegic.value.DoubleValue
1.262

@<SCITEGIC>MOL_PROPERTY
Coulomb
SciTegic.value.DoubleValue
44.179

@<SCITEGIC>MOL_PROPERTY
VdW
SciTegic.value.DoubleValue
0.255

@<SCITEGIC>MOL_PROPERTY
VdW6
SciTegic.value.DoubleValue
-3.552

@<SCITEGIC>MOL_PROPERTY
VdW12
SciTegic.value.DoubleValue
3.807

@<SCITEGIC>MOL_PROPERTY
Bond
SciTegic.value.DoubleValue
0.125

@<SCITEGIC>MOL_PROPERTY
Angle
SciTegic.value.DoubleValue
0.616

@<SCITEGIC>MOL_PROPERTY
Pdih
SciTegic.value.DoubleValue
0.521

@<SCITEGIC>MOL_PROPERTY
Idih
SciTegic.value.DoubleValue
0.000

@<SCITEGIC>MOL_PROPERTY
Tether
SciTegic.value.DoubleValue
0.000

@<TRIPOS>MOLECULE
guest-1_confgen4.mol2 : confsearch ligand conformer 199
          17          16           1
SMALL
USER_CHARGES
 
@<TRIPOS>ATOM
       1    N1      21.115147   16.791163   21.907160 N.4        1 MOL1        -0.5891
       2    H1      22.080901   17.133140   21.899014 H          1 MOL1         0.3726
       3    H2      20.920865   16.416677   20.973505 H          1 MOL1         0.3726
       4    H3      21.087201   15.998090   22.556131 H          1 MOL1         0.3726
       5    C1      20.131895   17.875716   22.299989 C.3        1 MOL1         0.0314
       6    H4      20.379136   18.204736   23.312976 H          1 MOL1         0.0999
       7    H5      19.131718   17.434295   22.317798 H          1 MOL1         0.0999
       8    C2      20.147489   19.083511   21.345395 C.3        1 MOL1        -0.1308
       9    H6      21.157120   19.514671   21.318236 H          1 MOL1         0.1025
      10    H7      19.913851   18.746910   20.326522 H          1 MOL1         0.1025
      11    C3      19.132999   20.163568   21.781066 C.3        1 MOL1        -0.1243
      12    H8      19.364354   20.498521   22.802147 H          1 MOL1         0.1025
      13    H9      18.122599   19.731728   21.811574 H          1 MOL1         0.1025
      14    C4      19.143053   21.378365   20.828111 C.3        1 MOL1        -0.2258
      15    H10     18.416300   22.133508   21.154667 H          1 MOL1         0.1036
      16    H11     18.881100   21.080122   19.804569 H          1 MOL1         0.1036
      17    H12     20.132682   21.852926   20.802921 H          1 MOL1         0.1036
@<TRIPOS>BOND
    1     1     2    1
    2     1     3    1
    3     1     4    1
    4     1     5    1
    5     5     6    1
    6     5     7    1
    7     5     8    1
    8     8     9    1
    9     8    10    1
   10     8    11    1
   11    11    12    1
   12    11    13    1
   13    11    14    1
   14    14    15    1
   15    14    16    1
   16    14    17    1
@<TRIPOS>SUBSTRUCTURE
       1 MOL1            1 RESIDUE      1      MOL     
@<SCITEGIC>MOL_PROPERTY
VConf Rank
SciTegic.value.IntegerValue
199

@<SCITEGIC>MOL_PROPERTY
Conf_Id
SciTegic.value.IntegerValue
7

@<SCITEGIC>MOL_PROPERTY
Delta U+W
SciTegic.value.DoubleValue
0.000

@<SCITEGIC>MOL_PROPERTY
U+W
SciTegic.value.DoubleValue
-15.865

@<SCITEGIC>MOL_PROPERTY
Grad RMS
SciTegic.value.DoubleValue
0.000000

@<SCITEGIC>MOL_PROPERTY
U
SciTegic.value.DoubleValue
44.664

@<SCITEGIC>MOL_PROPERTY
W
SciTegic.value.DoubleValue
-60.529

@<SCITEGIC>MOL_PROPERTY
W(PB)
SciTegic.value.DoubleValue
-62.309

@<SCITEGIC>MOL_PROPERTY
W(SA)
SciTegic.value.DoubleValue
1.780

@<SCITEGIC>MOL_PROPERTY
Valence
SciTegic.value.DoubleValue
0.872

@<SCITEGIC>MOL_PROPERTY
Coulomb
SciTegic.value.DoubleValue
43.648

@<SCITEGIC>MOL_PROPERTY
VdW
SciTegic.value.DoubleValue
0.144

@<SCITEGIC>MOL_PROPERTY
VdW6
SciTegic.value.DoubleValue
-2.370

@<SCITEGIC>MOL_PROPERTY
VdW12
SciTegic.value.DoubleValue
2.515

@<SCITEGIC>MOL_PROPERTY
Bond
SciTegic.value.DoubleValue
0.080

@<SCITEGIC>MOL_PROPERTY
Angle
SciTegic.value.DoubleValue
0.376

@<SCITEGIC>MOL_PROPERTY
Pdih
SciTegic.value.DoubleValue
0.416

@<SCITEGIC>MOL_PROPERTY
Idih
SciTegic.value.DoubleValue
0.000

@<SCITEGIC>MOL_PROPERTY
Tether
SciTegic.value.DoubleValue
0.000

@<TRIPOS>MOLECULE
guest-1_confgen4.mol2 : confsearch ligand conformer 200
          17          16           1
SMALL
USER_CHARGES
 
@<TRIPOS>ATOM
       1    N1      19.224883   19.448531   19.338112 N.4        1 MOL1        -0.5891
       2    H1      18.328083   18.974568   19.194037 H          1 MOL1         0.3726
       3    H2      19.943031   18.878696   18.880730 H          1 MOL1         0.3726
       4    H3      19.177674   20.334332   18.824332 H          1 MOL1         0.3726
       5    C1      19.523086   19.664803   20.808370 C.3        1 MOL1         0.0314
       6    H4      18.737009   20.302001   21.222460 H          1 MOL1         0.0999
       7    H5      20.473275   20.199957   20.883136 H          1 MOL1         0.0999
       8    C2      19.601411   18.351994   21.611087 C.3        1 MOL1        -0.1308
       9    H6      18.657018   17.803436   21.496709 H          1 MOL1         0.1025
      10    H7      20.389803   17.711316   21.194124 H          1 MOL1         0.1025
      11    C3      19.867075   18.588173   23.116294 C.3        1 MOL1        -0.1243
      12    H8      19.830925   17.623034   23.640871 H          1 MOL1         0.1025
      13    H9      19.061001   19.201785   23.542799 H          1 MOL1         0.1025
      14    C4      21.231932   19.260310   23.390803 C.3        1 MOL1        -0.2258
      15    H10     22.055308   18.669368   22.968943 H          1 MOL1         0.1036
      16    H11     21.405263   19.352534   24.470830 H          1 MOL1         0.1036
      17    H12     21.278604   20.268935   22.961165 H          1 MOL1         0.1036
@<TRIPOS>BOND
    1     1     2    1
    2     1     3    1
    3     1     4    1
    4     1     5    1
    5     5     6    1
    6     5     7    1
    7     5     8    1
    8     8     9    1
    9     8    10    1
   10     8    11    1
   11    11    12    1
   12    11    13    1
   13    11    14    1
   14    14    15    1
   15    14    16    1
   16    14    17    1
@<TRIPOS>SUBSTRUCTURE
       1 MOL1            1 RESIDUE      1      MOL     
@<SCITEGIC>MOL_PROPERTY
VConf Rank
SciTegic.value.IntegerValue
200

@<SCITEGIC>MOL_PROPERTY
Conf_Id
SciTegic.value.IntegerValue
36

@<SCITEGIC>MOL_PROPERTY
Delta U+W
SciTegic.value.DoubleValue
0.275

@<SCITEGIC>MOL_PROPERTY
U+W
SciTegic.value.DoubleValue
-15.590

@<SCITEGIC>MOL_PROPERTY
Grad RMS
SciTegic.value.DoubleValue
0.000000

@<SCITEGIC>MOL_PROPERTY
U
SciTegic.value.DoubleValue
45.174

@<SCITEGIC>MOL_PROPERTY
W
SciTegic.value.DoubleValue
-60.765

@<SCITEGIC>MOL_PROPERTY
W(PB)
SciTegic.value.DoubleValue
-62.518

@<SCITEGIC>MOL_PROPERTY
W(SA)
SciTegic.value.DoubleValue
1.754

@<SCITEGIC>MOL_PROPERTY
Valence
SciTegic.value.DoubleValue
1.161

@<SCITEGIC>MOL_PROPERTY
Coulomb
SciTegic.value.DoubleValue
43.789

@<SCITEGIC>MOL_PROPERTY
VdW
SciTegic.value.DoubleValue
0.224

@<SCITEGIC>MOL_PROPERTY
VdW6
SciTegic.value.DoubleValue
-2.897

@<SCITEGIC>MOL_PROPERTY
VdW12
SciTegic.value.DoubleValue
3.121

@<SCITEGIC>MOL_PROPERTY
Bond
SciTegic.value.DoubleValue
0.100

@<SCITEGIC>MOL_PROPERTY
Angle
SciTegic.value.DoubleValue
0.500

@<SCITEGIC>MOL_PROPERTY
Pdih
SciTegic.value.DoubleValue
0.561

@<SCITEGIC>MOL_PROPERTY
Idih
SciTegic.value.DoubleValue
0.000

@<SCITEGIC>MOL_PROPERTY
Tether
SciTegic.value.DoubleValue
0.000

@<TRIPOS>MOLECULE
guest-1_confgen4.mol2 : confsearch ligand conformer 201
          17          16           1
SMALL
USER_CHARGES
 
@<TRIPOS>ATOM
       1    N1      19.202211   19.627895   20.019479 N.4        1 MOL1        -0.5891
       2    H1      19.966752   18.973418   19.835135 H          1 MOL1         0.3726
       3    H2      19.577799   20.572808   19.894773 H          1 MOL1         0.3726
       4    H3      18.500426   19.487726   19.285536 H          1 MOL1         0.3726
       5    C1      18.616570   19.432565   21.404723 C.3        1 MOL1         0.0314
       6    H4      18.171897   18.435161   21.457197 H          1 MOL1         0.0999
       7    H5      17.814263   20.166561   21.519131 H          1 MOL1         0.0999
       8    C2      19.630928   19.613328   22.553642 C.3        1 MOL1        -0.1308
       9    H6      20.254779   20.497723   22.368212 H          1 MOL1         0.1025
      10    H7      19.064766   19.830752   23.469084 H          1 MOL1         0.1025
      11    C3      20.520513   18.373645   22.826642 C.3        1 MOL1        -0.1243
      12    H8      19.886144   17.510540   23.072907 H          1 MOL1         0.1025
      13    H9      21.124821   18.572046   23.722989 H          1 MOL1         0.1025
      14    C4      21.470066   18.000325   21.665666 C.3        1 MOL1        -0.2258
      15    H10     20.918815   17.593227   20.810056 H          1 MOL1         0.1036
      16    H11     22.180260   17.227894   21.988358 H          1 MOL1         0.1036
      17    H12     22.052188   18.869102   21.331729 H          1 MOL1         0.1036
@<TRIPOS>BOND
    1     1     2    1
    2     1     3    1
    3     1     4    1
    4     1     5    1
    5     5     6    1
    6     5     7    1
    7     5     8    1
    8     8     9    1
    9     8    10    1
   10     8    11    1
   11    11    12    1
   12    11    13    1
   13    11    14    1
   14    14    15    1
   15    14    16    1
   16    14    17    1
@<TRIPOS>SUBSTRUCTURE
       1 MOL1            1 RESIDUE      1      MOL     
@<SCITEGIC>MOL_PROPERTY
VConf Rank
SciTegic.value.IntegerValue
201

@<SCITEGIC>MOL_PROPERTY
Conf_Id
SciTegic.value.IntegerValue
19

@<SCITEGIC>MOL_PROPERTY
Delta U+W
SciTegic.value.DoubleValue
2.662

@<SCITEGIC>MOL_PROPERTY
U+W
SciTegic.value.DoubleValue
-13.203

@<SCITEGIC>MOL_PROPERTY
Grad RMS
SciTegic.value.DoubleValue
0.000000

@<SCITEGIC>MOL_PROPERTY
U
SciTegic.value.DoubleValue
47.423

@<SCITEGIC>MOL_PROPERTY
W
SciTegic.value.DoubleValue
-60.626

@<SCITEGIC>MOL_PROPERTY
W(PB)
SciTegic.value.DoubleValue
-62.328

@<SCITEGIC>MOL_PROPERTY
W(SA)
SciTegic.value.DoubleValue
1.702

@<SCITEGIC>MOL_PROPERTY
Valence
SciTegic.value.DoubleValue
2.414

@<SCITEGIC>MOL_PROPERTY
Coulomb
SciTegic.value.DoubleValue
44.831

@<SCITEGIC>MOL_PROPERTY
VdW
SciTegic.value.DoubleValue
0.178

@<SCITEGIC>MOL_PROPERTY
VdW6
SciTegic.value.DoubleValue
-3.743

@<SCITEGIC>MOL_PROPERTY
VdW12
SciTegic.value.DoubleValue
3.921

@<SCITEGIC>MOL_PROPERTY
Bond
SciTegic.value.DoubleValue
0.138

@<SCITEGIC>MOL_PROPERTY
Angle
SciTegic.value.DoubleValue
0.941

@<SCITEGIC>MOL_PROPERTY
Pdih
SciTegic.value.DoubleValue
1.335

@<SCITEGIC>MOL_PROPERTY
Idih
SciTegic.value.DoubleValue
0.000

@<SCITEGIC>MOL_PROPERTY
Tether
SciTegic.value.DoubleValue
0.000

@<TRIPOS>MOLECULE
guest-1_confgen4.mol2 : confsearch ligand conformer 202
          17          16           1
SMALL
USER_CHARGES
 
@<TRIPOS>ATOM
       1    N1      21.551664   19.359130   22.357939 N.4        1 MOL1        -0.5891
       2    H1      22.499509   18.997500   22.505039 H          1 MOL1         0.3726
       3    H2      21.440177   20.163168   22.982898 H          1 MOL1         0.3726
       4    H3      21.509570   19.714828   21.399529 H          1 MOL1         0.3726
       5    C1      20.497597   18.298450   22.610803 C.3        1 MOL1         0.0314
       6    H4      20.610410   17.976775   23.649714 H          1 MOL1         0.0999
       7    H5      20.706190   17.439908   21.966833 H          1 MOL1         0.0999
       8    C2      19.048034   18.778697   22.387777 C.3        1 MOL1        -0.1308
       9    H6      18.382642   18.104207   22.942901 H          1 MOL1         0.1025
      10    H7      18.908960   19.772693   22.833152 H          1 MOL1         0.1025
      11    C3      18.593328   18.783450   20.905912 C.3        1 MOL1        -0.1243
      12    H8      17.524537   19.037568   20.872744 H          1 MOL1         0.1025
      13    H9      18.677513   17.769471   20.490243 H          1 MOL1         0.1025
      14    C4      19.363185   19.775161   20.004408 C.3        1 MOL1        -0.2258
      15    H10     19.378705   20.781956   20.441756 H          1 MOL1         0.1036
      16    H11     18.882008   19.847121   19.020311 H          1 MOL1         0.1036
      17    H12     20.395181   19.446763   19.834644 H          1 MOL1         0.1036
@<TRIPOS>BOND
    1     1     2    1
    2     1     3    1
    3     1     4    1
    4     1     5    1
    5     5     6    1
    6     5     7    1
    7     5     8    1
    8     8     9    1
    9     8    10    1
   10     8    11    1
   11    11    12    1
   12    11    13    1
   13    11    14    1
   14    14    15    1
   15    14    16    1
   16    14    17    1
@<TRIPOS>SUBSTRUCTURE
       1 MOL1            1 RESIDUE      1      MOL     
@<SCITEGIC>MOL_PROPERTY
VConf Rank
SciTegic.value.IntegerValue
202

@<SCITEGIC>MOL_PROPERTY
Conf_Id
SciTegic.value.IntegerValue
44

@<SCITEGIC>MOL_PROPERTY
Delta U+W
SciTegic.value.DoubleValue
2.712

@<SCITEGIC>MOL_PROPERTY
U+W
SciTegic.value.DoubleValue
-13.153

@<SCITEGIC>MOL_PROPERTY
Grad RMS
SciTegic.value.DoubleValue
0.000000

@<SCITEGIC>MOL_PROPERTY
U
SciTegic.value.DoubleValue
47.423

@<SCITEGIC>MOL_PROPERTY
W
SciTegic.value.DoubleValue
-60.576

@<SCITEGIC>MOL_PROPERTY
W(PB)
SciTegic.value.DoubleValue
-62.262

@<SCITEGIC>MOL_PROPERTY
W(SA)
SciTegic.value.DoubleValue
1.687

@<SCITEGIC>MOL_PROPERTY
Valence
SciTegic.value.DoubleValue
2.414

@<SCITEGIC>MOL_PROPERTY
Coulomb
SciTegic.value.DoubleValue
44.831

@<SCITEGIC>MOL_PROPERTY
VdW
SciTegic.value.DoubleValue
0.178

@<SCITEGIC>MOL_PROPERTY
VdW6
SciTegic.value.DoubleValue
-3.743

@<SCITEGIC>MOL_PROPERTY
VdW12
SciTegic.value.DoubleValue
3.922

@<SCITEGIC>MOL_PROPERTY
Bond
SciTegic.value.DoubleValue
0.138

@<SCITEGIC>MOL_PROPERTY
Angle
SciTegic.value.DoubleValue
0.941

@<SCITEGIC>MOL_PROPERTY
Pdih
SciTegic.value.DoubleValue
1.335

@<SCITEGIC>MOL_PROPERTY
Idih
SciTegic.value.DoubleValue
0.000

@<SCITEGIC>MOL_PROPERTY
Tether
SciTegic.value.DoubleValue
0.000

@<TRIPOS>MOLECULE
guest-1_confgen4.mol2 : confsearch ligand conformer 203
          17          16           1
SMALL
USER_CHARGES
 
@<TRIPOS>ATOM
       1    N1      18.708178   20.077173   20.415083 N.4        1 MOL1        -0.5891
       2    H1      18.676265   19.103780   20.098962 H          1 MOL1         0.3726
       3    H2      19.232663   20.606766   19.712356 H          1 MOL1         0.3726
       4    H3      17.745828   20.429588   20.396245 H          1 MOL1         0.3726
       5    C1      19.326896   20.199995   21.794199 C.3        1 MOL1         0.0314
       6    H4      18.704822   19.639135   22.496527 H          1 MOL1         0.0999
       7    H5      19.293832   21.254531   22.081252 H          1 MOL1         0.0999
       8    C2      20.782667   19.695242   21.870840 C.3        1 MOL1        -0.1308
       9    H6      21.407024   20.291430   21.192248 H          1 MOL1         0.1025
      10    H7      21.166393   19.882099   22.882593 H          1 MOL1         0.1025
      11    C3      20.946963   18.192347   21.533395 C.3        1 MOL1        -0.1243
      12    H8      22.012005   17.929277   21.599608 H          1 MOL1         0.1025
      13    H9      20.652786   18.004871   20.491777 H          1 MOL1         0.1025
      14    C4      20.142021   17.268613   22.476041 C.3        1 MOL1        -0.2258
      15    H10     20.419445   17.436710   23.524777 H          1 MOL1         0.1036
      16    H11     20.339175   16.214277   22.242642 H          1 MOL1         0.1036
      17    H12     19.061679   17.432930   22.377003 H          1 MOL1         0.1036
@<TRIPOS>BOND
    1     1     2    1
    2     1     3    1
    3     1     4    1
    4     1     5    1
    5     5     6    1
    6     5     7    1
    7     5     8    1
    8     8     9    1
    9     8    10    1
   10     8    11    1
   11    11    12    1
   12    11    13    1
   13    11    14    1
   14    14    15    1
   15    14    16    1
   16    14    17    1
@<TRIPOS>SUBSTRUCTURE
       1 MOL1            1 RESIDUE      1      MOL     
@<SCITEGIC>MOL_PROPERTY
VConf Rank
SciTegic.value.IntegerValue
203

@<SCITEGIC>MOL_PROPERTY
Conf_Id
SciTegic.value.IntegerValue
1

@<SCITEGIC>MOL_PROPERTY
Delta U+W
SciTegic.value.DoubleValue
0.685

@<SCITEGIC>MOL_PROPERTY
U+W
SciTegic.value.DoubleValue
-15.179

@<SCITEGIC>MOL_PROPERTY
Grad RMS
SciTegic.value.DoubleValue
0.000000

@<SCITEGIC>MOL_PROPERTY
U
SciTegic.value.DoubleValue
45.697

@<SCITEGIC>MOL_PROPERTY
W
SciTegic.value.DoubleValue
-60.876

@<SCITEGIC>MOL_PROPERTY
W(PB)
SciTegic.value.DoubleValue
-62.586

@<SCITEGIC>MOL_PROPERTY
W(SA)
SciTegic.value.DoubleValue
1.710

@<SCITEGIC>MOL_PROPERTY
Valence
SciTegic.value.DoubleValue
1.263

@<SCITEGIC>MOL_PROPERTY
Coulomb
SciTegic.value.DoubleValue
44.179

@<SCITEGIC>MOL_PROPERTY
VdW
SciTegic.value.DoubleValue
0.255

@<SCITEGIC>MOL_PROPERTY
VdW6
SciTegic.value.DoubleValue
-3.552

@<SCITEGIC>MOL_PROPERTY
VdW12
SciTegic.value.DoubleValue
3.807

@<SCITEGIC>MOL_PROPERTY
Bond
SciTegic.value.DoubleValue
0.125

@<SCITEGIC>MOL_PROPERTY
Angle
SciTegic.value.DoubleValue
0.616

@<SCITEGIC>MOL_PROPERTY
Pdih
SciTegic.value.DoubleValue
0.521

@<SCITEGIC>MOL_PROPERTY
Idih
SciTegic.value.DoubleValue
0.000

@<SCITEGIC>MOL_PROPERTY
Tether
SciTegic.value.DoubleValue
0.000

@<TRIPOS>MOLECULE
guest-1_confgen4.mol2 : confsearch ligand conformer 204
          17          16           1
SMALL
USER_CHARGES
 
@<TRIPOS>ATOM
       1    N1      21.068337   17.957680   20.378603 N.4        1 MOL1        -0.5891
       2    H1      21.000179   16.956134   20.582653 H          1 MOL1         0.3726
       3    H2      21.685359   18.369141   21.084600 H          1 MOL1         0.3726
       4    H3      21.545956   18.045670   19.475937 H          1 MOL1         0.3726
       5    C1      19.707104   18.626027   20.363950 C.3        1 MOL1         0.0314
       6    H4      19.118281   18.164802   19.566392 H          1 MOL1         0.0999
       7    H5      19.849213   19.680225   20.112399 H          1 MOL1         0.0999
       8    C2      18.941076   18.508147   21.697826 C.3        1 MOL1        -0.1308
       9    H6      17.948302   18.960747   21.573904 H          1 MOL1         0.1025
      10    H7      18.767512   17.447144   21.921201 H          1 MOL1         0.1025
      11    C3      19.658745   19.175312   22.897576 C.3        1 MOL1        -0.1243
      12    H8      20.615469   18.672046   23.092661 H          1 MOL1         0.1025
      13    H9      19.049439   19.028574   23.800415 H          1 MOL1         0.1025
      14    C4      19.898629   20.688881   22.694199 C.3        1 MOL1        -0.2258
      15    H10     20.348462   21.131522   23.592357 H          1 MOL1         0.1036
      16    H11     18.955330   21.215090   22.498347 H          1 MOL1         0.1036
      17    H12     20.578594   20.880899   21.854720 H          1 MOL1         0.1036
@<TRIPOS>BOND
    1     1     2    1
    2     1     3    1
    3     1     4    1
    4     1     5    1
    5     5     6    1
    6     5     7    1
    7     5     8    1
    8     8     9    1
    9     8    10    1
   10     8    11    1
   11    11    12    1
   12    11    13    1
   13    11    14    1
   14    14    15    1
   15    14    16    1
   16    14    17    1
@<TRIPOS>SUBSTRUCTURE
       1 MOL1            1 RESIDUE      1      MOL     
@<SCITEGIC>MOL_PROPERTY
VConf Rank
SciTegic.value.IntegerValue
204

@<SCITEGIC>MOL_PROPERTY
Conf_Id
SciTegic.value.IntegerValue
43

@<SCITEGIC>MOL_PROPERTY
Delta U+W
SciTegic.value.DoubleValue
0.642

@<SCITEGIC>MOL_PROPERTY
U+W
SciTegic.value.DoubleValue
-15.222

@<SCITEGIC>MOL_PROPERTY
Grad RMS
SciTegic.value.DoubleValue
0.000000

@<SCITEGIC>MOL_PROPERTY
U
SciTegic.value.DoubleValue
45.697

@<SCITEGIC>MOL_PROPERTY
W
SciTegic.value.DoubleValue
-60.919

@<SCITEGIC>MOL_PROPERTY
W(PB)
SciTegic.value.DoubleValue
-62.631

@<SCITEGIC>MOL_PROPERTY
W(SA)
SciTegic.value.DoubleValue
1.712

@<SCITEGIC>MOL_PROPERTY
Valence
SciTegic.value.DoubleValue
1.262

@<SCITEGIC>MOL_PROPERTY
Coulomb
SciTegic.value.DoubleValue
44.179

@<SCITEGIC>MOL_PROPERTY
VdW
SciTegic.value.DoubleValue
0.255

@<SCITEGIC>MOL_PROPERTY
VdW6
SciTegic.value.DoubleValue
-3.552

@<SCITEGIC>MOL_PROPERTY
VdW12
SciTegic.value.DoubleValue
3.807

@<SCITEGIC>MOL_PROPERTY
Bond
SciTegic.value.DoubleValue
0.125

@<SCITEGIC>MOL_PROPERTY
Angle
SciTegic.value.DoubleValue
0.616

@<SCITEGIC>MOL_PROPERTY
Pdih
SciTegic.value.DoubleValue
0.521

@<SCITEGIC>MOL_PROPERTY
Idih
SciTegic.value.DoubleValue
0.000

@<SCITEGIC>MOL_PROPERTY
Tether
SciTegic.value.DoubleValue
0.000

@<TRIPOS>MOLECULE
guest-1_confgen4.mol2 : confsearch ligand conformer 205
          17          16           1
SMALL
USER_CHARGES
 
@<TRIPOS>ATOM
       1    N1      20.441098   18.553333   24.071305 N.4        1 MOL1        -0.5891
       2    H1      19.556926   18.082282   24.285892 H          1 MOL1         0.3726
       3    H2      20.363377   19.512926   24.421786 H          1 MOL1         0.3726
       4    H3      21.165950   18.091647   24.630183 H          1 MOL1         0.3726
       5    C1      20.760832   18.513783   22.590237 C.3        1 MOL1         0.0314
       6    H4      20.859228   17.465890   22.293988 H          1 MOL1         0.0999
       7    H5      21.726452   19.004259   22.440120 H          1 MOL1         0.0999
       8    C2      19.691518   19.199236   21.720190 C.3        1 MOL1        -0.1308
       9    H6      18.720258   18.714045   21.885219 H          1 MOL1         0.1025
      10    H7      19.584604   20.247147   22.030743 H          1 MOL1         0.1025
      11    C3      20.055341   19.136472   20.220452 C.3        1 MOL1        -0.1243
      12    H8      20.165760   18.087846   19.909779 H          1 MOL1         0.1025
      13    H9      21.029006   19.619136   20.055108 H          1 MOL1         0.1025
      14    C4      18.987107   19.822099   19.341393 C.3        1 MOL1        -0.2258
      15    H10     19.263913   19.766688   18.280564 H          1 MOL1         0.1036
      16    H11     18.878556   20.882102   19.605622 H          1 MOL1         0.1036
      17    H12     18.008481   19.338755   19.459199 H          1 MOL1         0.1036
@<TRIPOS>BOND
    1     1     2    1
    2     1     3    1
    3     1     4    1
    4     1     5    1
    5     5     6    1
    6     5     7    1
    7     5     8    1
    8     8     9    1
    9     8    10    1
   10     8    11    1
   11    11    12    1
   12    11    13    1
   13    11    14    1
   14    14    15    1
   15    14    16    1
   16    14    17    1
@<TRIPOS>SUBSTRUCTURE
       1 MOL1            1 RESIDUE      1      MOL     
@<SCITEGIC>MOL_PROPERTY
VConf Rank
SciTegic.value.IntegerValue
205

@<SCITEGIC>MOL_PROPERTY
Conf_Id
SciTegic.value.IntegerValue
7

@<SCITEGIC>MOL_PROPERTY
Delta U+W
SciTegic.value.DoubleValue
0.000

@<SCITEGIC>MOL_PROPERTY
U+W
SciTegic.value.DoubleValue
-15.865

@<SCITEGIC>MOL_PROPERTY
Grad RMS
SciTegic.value.DoubleValue
0.000000

@<SCITEGIC>MOL_PROPERTY
U
SciTegic.value.DoubleValue
44.664

@<SCITEGIC>MOL_PROPERTY
W
SciTegic.value.DoubleValue
-60.529

@<SCITEGIC>MOL_PROPERTY
W(PB)
SciTegic.value.DoubleValue
-62.309

@<SCITEGIC>MOL_PROPERTY
W(SA)
SciTegic.value.DoubleValue
1.780

@<SCITEGIC>MOL_PROPERTY
Valence
SciTegic.value.DoubleValue
0.872

@<SCITEGIC>MOL_PROPERTY
Coulomb
SciTegic.value.DoubleValue
43.648

@<SCITEGIC>MOL_PROPERTY
VdW
SciTegic.value.DoubleValue
0.144

@<SCITEGIC>MOL_PROPERTY
VdW6
SciTegic.value.DoubleValue
-2.370

@<SCITEGIC>MOL_PROPERTY
VdW12
SciTegic.value.DoubleValue
2.515

@<SCITEGIC>MOL_PROPERTY
Bond
SciTegic.value.DoubleValue
0.080

@<SCITEGIC>MOL_PROPERTY
Angle
SciTegic.value.DoubleValue
0.376

@<SCITEGIC>MOL_PROPERTY
Pdih
SciTegic.value.DoubleValue
0.416

@<SCITEGIC>MOL_PROPERTY
Idih
SciTegic.value.DoubleValue
0.000

@<SCITEGIC>MOL_PROPERTY
Tether
SciTegic.value.DoubleValue
0.000

@<TRIPOS>MOLECULE
guest-1_confgen4.mol2 : confsearch ligand conformer 206
          17          16           1
SMALL
USER_CHARGES
 
@<TRIPOS>ATOM
       1    N1      22.240525   19.173460   20.930029 N.4        1 MOL1        -0.5891
       2    H1      22.824261   19.340169   21.755322 H          1 MOL1         0.3726
       3    H2      22.200966   20.053512   20.406970 H          1 MOL1         0.3726
       4    H3      22.743985   18.501503   20.341942 H          1 MOL1         0.3726
       5    C1      20.859579   18.672302   21.303102 C.3        1 MOL1         0.0314
       6    H4      20.976024   17.720785   21.828901 H          1 MOL1         0.0999
       7    H5      20.308037   18.487473   20.377641 H          1 MOL1         0.0999
       8    C2      20.074342   19.659581   22.187772 C.3        1 MOL1        -0.1308
       9    H6      20.655143   19.869367   23.095813 H          1 MOL1         0.1025
      10    H7      19.958851   20.615802   21.660333 H          1 MOL1         0.1025
      11    C3      18.682967   19.119946   22.593819 C.3        1 MOL1        -0.1243
      12    H8      18.211623   19.832505   23.285249 H          1 MOL1         0.1025
      13    H9      18.798650   18.179557   23.151017 H          1 MOL1         0.1025
      14    C4      17.745694   18.895295   21.385097 C.3        1 MOL1        -0.2258
      15    H10     17.617918   19.819765   20.807037 H          1 MOL1         0.1036
      16    H11     16.752594   18.571897   21.722993 H          1 MOL1         0.1036
      17    H12     18.134222   18.120855   20.711763 H          1 MOL1         0.1036
@<TRIPOS>BOND
    1     1     2    1
    2     1     3    1
    3     1     4    1
    4     1     5    1
    5     5     6    1
    6     5     7    1
    7     5     8    1
    8     8     9    1
    9     8    10    1
   10     8    11    1
   11    11    12    1
   12    11    13    1
   13    11    14    1
   14    14    15    1
   15    14    16    1
   16    14    17    1
@<TRIPOS>SUBSTRUCTURE
       1 MOL1            1 RESIDUE      1      MOL     
@<SCITEGIC>MOL_PROPERTY
VConf Rank
SciTegic.value.IntegerValue
206

@<SCITEGIC>MOL_PROPERTY
Conf_Id
SciTegic.value.IntegerValue
36

@<SCITEGIC>MOL_PROPERTY
Delta U+W
SciTegic.value.DoubleValue
0.275

@<SCITEGIC>MOL_PROPERTY
U+W
SciTegic.value.DoubleValue
-15.590

@<SCITEGIC>MOL_PROPERTY
Grad RMS
SciTegic.value.DoubleValue
0.000000

@<SCITEGIC>MOL_PROPERTY
U
SciTegic.value.DoubleValue
45.174

@<SCITEGIC>MOL_PROPERTY
W
SciTegic.value.DoubleValue
-60.765

@<SCITEGIC>MOL_PROPERTY
W(PB)
SciTegic.value.DoubleValue
-62.518

@<SCITEGIC>MOL_PROPERTY
W(SA)
SciTegic.value.DoubleValue
1.754

@<SCITEGIC>MOL_PROPERTY
Valence
SciTegic.value.DoubleValue
1.161

@<SCITEGIC>MOL_PROPERTY
Coulomb
SciTegic.value.DoubleValue
43.789

@<SCITEGIC>MOL_PROPERTY
VdW
SciTegic.value.DoubleValue
0.224

@<SCITEGIC>MOL_PROPERTY
VdW6
SciTegic.value.DoubleValue
-2.897

@<SCITEGIC>MOL_PROPERTY
VdW12
SciTegic.value.DoubleValue
3.121

@<SCITEGIC>MOL_PROPERTY
Bond
SciTegic.value.DoubleValue
0.100

@<SCITEGIC>MOL_PROPERTY
Angle
SciTegic.value.DoubleValue
0.500

@<SCITEGIC>MOL_PROPERTY
Pdih
SciTegic.value.DoubleValue
0.561

@<SCITEGIC>MOL_PROPERTY
Idih
SciTegic.value.DoubleValue
0.000

@<SCITEGIC>MOL_PROPERTY
Tether
SciTegic.value.DoubleValue
0.000

@<TRIPOS>MOLECULE
guest-1_confgen4.mol2 : confsearch ligand conformer 207
          17          16           1
SMALL
USER_CHARGES
 
@<TRIPOS>ATOM
       1    N1      19.823028   20.506956   22.665681 N.4        1 MOL1        -0.5891
       2    H1      20.029077   20.749255   21.693220 H          1 MOL1         0.3726
       3    H2      20.706030   20.558207   23.182557 H          1 MOL1         0.3726
       4    H3      19.216730   21.244316   23.039211 H          1 MOL1         0.3726
       5    C1      19.181762   19.137390   22.780124 C.3        1 MOL1         0.0314
       6    H4      18.215235   19.161817   22.269701 H          1 MOL1         0.0999
       7    H5      18.998053   18.958111   23.842972 H          1 MOL1         0.0999
       8    C2      20.040812   17.985575   22.217125 C.3        1 MOL1        -0.1308
       9    H6      21.084414   18.104147   22.537381 H          1 MOL1         0.1025
      10    H7      19.689643   17.051244   22.674895 H          1 MOL1         0.1025
      11    C3      19.964711   17.820044   20.677803 C.3        1 MOL1        -0.1243
      12    H8      18.923304   17.639043   20.376587 H          1 MOL1         0.1025
      13    H9      20.523153   16.915371   20.399057 H          1 MOL1         0.1025
      14    C4      20.532037   19.014619   19.877793 C.3        1 MOL1        -0.2258
      15    H10     19.884960   19.895878   19.957478 H          1 MOL1         0.1036
      16    H11     20.600581   18.760600   18.811992 H          1 MOL1         0.1036
      17    H12     21.539669   19.282144   20.221685 H          1 MOL1         0.1036
@<TRIPOS>BOND
    1     1     2    1
    2     1     3    1
    3     1     4    1
    4     1     5    1
    5     5     6    1
    6     5     7    1
    7     5     8    1
    8     8     9    1
    9     8    10    1
   10     8    11    1
   11    11    12    1
   12    11    13    1
   13    11    14    1
   14    14    15    1
   15    14    16    1
   16    14    17    1
@<TRIPOS>SUBSTRUCTURE
       1 MOL1            1 RESIDUE      1      MOL     
@<SCITEGIC>MOL_PROPERTY
VConf Rank
SciTegic.value.IntegerValue
207

@<SCITEGIC>MOL_PROPERTY
Conf_Id
SciTegic.value.IntegerValue
19

@<SCITEGIC>MOL_PROPERTY
Delta U+W
SciTegic.value.DoubleValue
2.662

@<SCITEGIC>MOL_PROPERTY
U+W
SciTegic.value.DoubleValue
-13.203

@<SCITEGIC>MOL_PROPERTY
Grad RMS
SciTegic.value.DoubleValue
0.000000

@<SCITEGIC>MOL_PROPERTY
U
SciTegic.value.DoubleValue
47.423

@<SCITEGIC>MOL_PROPERTY
W
SciTegic.value.DoubleValue
-60.626

@<SCITEGIC>MOL_PROPERTY
W(PB)
SciTegic.value.DoubleValue
-62.328

@<SCITEGIC>MOL_PROPERTY
W(SA)
SciTegic.value.DoubleValue
1.702

@<SCITEGIC>MOL_PROPERTY
Valence
SciTegic.value.DoubleValue
2.414

@<SCITEGIC>MOL_PROPERTY
Coulomb
SciTegic.value.DoubleValue
44.831

@<SCITEGIC>MOL_PROPERTY
VdW
SciTegic.value.DoubleValue
0.178

@<SCITEGIC>MOL_PROPERTY
VdW6
SciTegic.value.DoubleValue
-3.743

@<SCITEGIC>MOL_PROPERTY
VdW12
SciTegic.value.DoubleValue
3.921

@<SCITEGIC>MOL_PROPERTY
Bond
SciTegic.value.DoubleValue
0.138

@<SCITEGIC>MOL_PROPERTY
Angle
SciTegic.value.DoubleValue
0.941

@<SCITEGIC>MOL_PROPERTY
Pdih
SciTegic.value.DoubleValue
1.335

@<SCITEGIC>MOL_PROPERTY
Idih
SciTegic.value.DoubleValue
0.000

@<SCITEGIC>MOL_PROPERTY
Tether
SciTegic.value.DoubleValue
0.000

@<TRIPOS>MOLECULE
guest-1_confgen4.mol2 : confsearch ligand conformer 208
          17          16           1
SMALL
USER_CHARGES
 
@<TRIPOS>ATOM
       1    N1      19.516059   17.429415   22.411723 N.4        1 MOL1        -0.5891
       2    H1      18.795051   16.800807   22.780264 H          1 MOL1         0.3726
       3    H2      20.419579   17.059263   22.721753 H          1 MOL1         0.3726
       4    H3      19.492596   17.350782   21.391865 H          1 MOL1         0.3726
       5    C1      19.305681   18.859605   22.870350 C.3        1 MOL1         0.0314
       6    H4      19.347077   18.854426   23.962960 H          1 MOL1         0.0999
       7    H5      18.302952   19.176968   22.571825 H          1 MOL1         0.0999
       8    C2      20.351580   19.858728   22.332337 C.3        1 MOL1        -0.1308
       9    H6      20.349237   20.734886   22.994294 H          1 MOL1         0.1025
      10    H7      21.358046   19.426370   22.408641 H          1 MOL1         0.1025
      11    C3      20.085009   20.352472   20.887394 C.3        1 MOL1        -0.1243
      12    H8      20.821916   21.131516   20.646461 H          1 MOL1         0.1025
      13    H9      19.101006   20.839724   20.838962 H          1 MOL1         0.1025
      14    C4      20.166325   19.247848   19.809399 C.3        1 MOL1        -0.2258
      15    H10     21.100928   18.677942   19.892334 H          1 MOL1         0.1036
      16    H11     20.135406   19.692313   18.806079 H          1 MOL1         0.1036
      17    H12     19.320765   18.553782   19.879962 H          1 MOL1         0.1036
@<TRIPOS>BOND
    1     1     2    1
    2     1     3    1
    3     1     4    1
    4     1     5    1
    5     5     6    1
    6     5     7    1
    7     5     8    1
    8     8     9    1
    9     8    10    1
   10     8    11    1
   11    11    12    1
   12    11    13    1
   13    11    14    1
   14    14    15    1
   15    14    16    1
   16    14    17    1
@<TRIPOS>SUBSTRUCTURE
       1 MOL1            1 RESIDUE      1      MOL     
@<SCITEGIC>MOL_PROPERTY
VConf Rank
SciTegic.value.IntegerValue
208

@<SCITEGIC>MOL_PROPERTY
Conf_Id
SciTegic.value.IntegerValue
44

@<SCITEGIC>MOL_PROPERTY
Delta U+W
SciTegic.value.DoubleValue
2.712

@<SCITEGIC>MOL_PROPERTY
U+W
SciTegic.value.DoubleValue
-13.153

@<SCITEGIC>MOL_PROPERTY
Grad RMS
SciTegic.value.DoubleValue
0.000000

@<SCITEGIC>MOL_PROPERTY
U
SciTegic.value.DoubleValue
47.423

@<SCITEGIC>MOL_PROPERTY
W
SciTegic.value.DoubleValue
-60.576

@<SCITEGIC>MOL_PROPERTY
W(PB)
SciTegic.value.DoubleValue
-62.262

@<SCITEGIC>MOL_PROPERTY
W(SA)
SciTegic.value.DoubleValue
1.687

@<SCITEGIC>MOL_PROPERTY
Valence
SciTegic.value.DoubleValue
2.414

@<SCITEGIC>MOL_PROPERTY
Coulomb
SciTegic.value.DoubleValue
44.831

@<SCITEGIC>MOL_PROPERTY
VdW
SciTegic.value.DoubleValue
0.178

@<SCITEGIC>MOL_PROPERTY
VdW6
SciTegic.value.DoubleValue
-3.743

@<SCITEGIC>MOL_PROPERTY
VdW12
SciTegic.value.DoubleValue
3.922

@<SCITEGIC>MOL_PROPERTY
Bond
SciTegic.value.DoubleValue
0.138

@<SCITEGIC>MOL_PROPERTY
Angle
SciTegic.value.DoubleValue
0.941

@<SCITEGIC>MOL_PROPERTY
Pdih
SciTegic.value.DoubleValue
1.335

@<SCITEGIC>MOL_PROPERTY
Idih
SciTegic.value.DoubleValue
0.000

@<SCITEGIC>MOL_PROPERTY
Tether
SciTegic.value.DoubleValue
0.000

@<TRIPOS>MOLECULE
guest-1_confgen4.mol2 : confsearch ligand conformer 209
          17          16           1
SMALL
USER_CHARGES
 
@<TRIPOS>ATOM
       1    N1      19.265026   20.912537   21.513223 N.4        1 MOL1        -0.5891
       2    H1      19.745084   20.720428   20.629433 H          1 MOL1         0.3726
       3    H2      19.864204   21.544994   22.052076 H          1 MOL1         0.3726
       4    H3      18.412694   21.433587   21.283649 H          1 MOL1         0.3726
       5    C1      18.958656   19.637442   22.274885 C.3        1 MOL1         0.0314
       6    H4      18.295285   19.025016   21.658705 H          1 MOL1         0.0999
       7    H5      18.416249   19.914230   23.183027 H          1 MOL1         0.0999
       8    C2      20.212391   18.823691   22.656827 C.3        1 MOL1        -0.1308
       9    H6      20.852620   19.432782   23.308643 H          1 MOL1         0.1025
      10    H7      19.900294   17.958633   23.256888 H          1 MOL1         0.1025
      11    C3      21.037181   18.329949   21.442127 C.3        1 MOL1        -0.1243
      12    H8      21.912428   17.776478   21.810253 H          1 MOL1         0.1025
      13    H9      21.434502   19.187242   20.881915 H          1 MOL1         0.1025
      14    C4      20.228733   17.416788   20.492207 C.3        1 MOL1        -0.2258
      15    H10     19.821352   16.550519   21.029503 H          1 MOL1         0.1036
      16    H11     20.868640   17.038810   19.684358 H          1 MOL1         0.1036
      17    H12     19.393303   17.955636   20.027829 H          1 MOL1         0.1036
@<TRIPOS>BOND
    1     1     2    1
    2     1     3    1
    3     1     4    1
    4     1     5    1
    5     5     6    1
    6     5     7    1
    7     5     8    1
    8     8     9    1
    9     8    10    1
   10     8    11    1
   11    11    12    1
   12    11    13    1
   13    11    14    1
   14    14    15    1
   15    14    16    1
   16    14    17    1
@<TRIPOS>SUBSTRUCTURE
       1 MOL1            1 RESIDUE      1      MOL     
@<SCITEGIC>MOL_PROPERTY
VConf Rank
SciTegic.value.IntegerValue
209

@<SCITEGIC>MOL_PROPERTY
Conf_Id
SciTegic.value.IntegerValue
1

@<SCITEGIC>MOL_PROPERTY
Delta U+W
SciTegic.value.DoubleValue
0.685

@<SCITEGIC>MOL_PROPERTY
U+W
SciTegic.value.DoubleValue
-15.179

@<SCITEGIC>MOL_PROPERTY
Grad RMS
SciTegic.value.DoubleValue
0.000000

@<SCITEGIC>MOL_PROPERTY
U
SciTegic.value.DoubleValue
45.697

@<SCITEGIC>MOL_PROPERTY
W
SciTegic.value.DoubleValue
-60.876

@<SCITEGIC>MOL_PROPERTY
W(PB)
SciTegic.value.DoubleValue
-62.586

@<SCITEGIC>MOL_PROPERTY
W(SA)
SciTegic.value.DoubleValue
1.710

@<SCITEGIC>MOL_PROPERTY
Valence
SciTegic.value.DoubleValue
1.263

@<SCITEGIC>MOL_PROPERTY
Coulomb
SciTegic.value.DoubleValue
44.179

@<SCITEGIC>MOL_PROPERTY
VdW
SciTegic.value.DoubleValue
0.255

@<SCITEGIC>MOL_PROPERTY
VdW6
SciTegic.value.DoubleValue
-3.552

@<SCITEGIC>MOL_PROPERTY
VdW12
SciTegic.value.DoubleValue
3.807

@<SCITEGIC>MOL_PROPERTY
Bond
SciTegic.value.DoubleValue
0.125

@<SCITEGIC>MOL_PROPERTY
Angle
SciTegic.value.DoubleValue
0.616

@<SCITEGIC>MOL_PROPERTY
Pdih
SciTegic.value.DoubleValue
0.521

@<SCITEGIC>MOL_PROPERTY
Idih
SciTegic.value.DoubleValue
0.000

@<SCITEGIC>MOL_PROPERTY
Tether
SciTegic.value.DoubleValue
0.000

@<TRIPOS>MOLECULE
guest-1_confgen4.mol2 : confsearch ligand conformer 210
          17          16           1
SMALL
USER_CHARGES
 
@<TRIPOS>ATOM
       1    N1      18.845964   18.291803   23.094249 N.4        1 MOL1        -0.5891
       2    H1      18.374425   17.423312   22.824525 H          1 MOL1         0.3726
       3    H2      18.310664   19.065177   22.689532 H          1 MOL1         0.3726
       4    H3      18.763233   18.371420   24.112819 H          1 MOL1         0.3726
       5    C1      20.293496   18.313519   22.642546 C.3        1 MOL1         0.0314
       6    H4      20.809908   17.487974   23.139872 H          1 MOL1         0.0999
       7    H5      20.742452   19.248890   22.986528 H          1 MOL1         0.0999
       8    C2      20.471496   18.181570   21.115842 C.3        1 MOL1        -0.1308
       9    H6      21.545287   18.141990   20.889547 H          1 MOL1         0.1025
      10    H7      20.054061   17.220990   20.786022 H          1 MOL1         0.1025
      11    C3      19.822020   19.330070   20.304246 C.3        1 MOL1        -0.1243
      12    H8      18.733054   19.325417   20.448419 H          1 MOL1         0.1025
      13    H9      19.986836   19.143906   19.233693 H          1 MOL1         0.1025
      14    C4      20.389004   20.722270   20.664945 C.3        1 MOL1        -0.2258
      15    H10     19.949034   21.495568   20.021980 H          1 MOL1         0.1036
      16    H11     21.477724   20.752596   20.527702 H          1 MOL1         0.1036
      17    H12     20.167328   20.991567   21.705276 H          1 MOL1         0.1036
@<TRIPOS>BOND
    1     1     2    1
    2     1     3    1
    3     1     4    1
    4     1     5    1
    5     5     6    1
    6     5     7    1
    7     5     8    1
    8     8     9    1
    9     8    10    1
   10     8    11    1
   11    11    12    1
   12    11    13    1
   13    11    14    1
   14    14    15    1
   15    14    16    1
   16    14    17    1
@<TRIPOS>SUBSTRUCTURE
       1 MOL1            1 RESIDUE      1      MOL     
@<SCITEGIC>MOL_PROPERTY
VConf Rank
SciTegic.value.IntegerValue
210

@<SCITEGIC>MOL_PROPERTY
Conf_Id
SciTegic.value.IntegerValue
43

@<SCITEGIC>MOL_PROPERTY
Delta U+W
SciTegic.value.DoubleValue
0.642

@<SCITEGIC>MOL_PROPERTY
U+W
SciTegic.value.DoubleValue
-15.222

@<SCITEGIC>MOL_PROPERTY
Grad RMS
SciTegic.value.DoubleValue
0.000000

@<SCITEGIC>MOL_PROPERTY
U
SciTegic.value.DoubleValue
45.697

@<SCITEGIC>MOL_PROPERTY
W
SciTegic.value.DoubleValue
-60.919

@<SCITEGIC>MOL_PROPERTY
W(PB)
SciTegic.value.DoubleValue
-62.631

@<SCITEGIC>MOL_PROPERTY
W(SA)
SciTegic.value.DoubleValue
1.712

@<SCITEGIC>MOL_PROPERTY
Valence
SciTegic.value.DoubleValue
1.262

@<SCITEGIC>MOL_PROPERTY
Coulomb
SciTegic.value.DoubleValue
44.179

@<SCITEGIC>MOL_PROPERTY
VdW
SciTegic.value.DoubleValue
0.255

@<SCITEGIC>MOL_PROPERTY
VdW6
SciTegic.value.DoubleValue
-3.552

@<SCITEGIC>MOL_PROPERTY
VdW12
SciTegic.value.DoubleValue
3.807

@<SCITEGIC>MOL_PROPERTY
Bond
SciTegic.value.DoubleValue
0.125

@<SCITEGIC>MOL_PROPERTY
Angle
SciTegic.value.DoubleValue
0.616

@<SCITEGIC>MOL_PROPERTY
Pdih
SciTegic.value.DoubleValue
0.521

@<SCITEGIC>MOL_PROPERTY
Idih
SciTegic.value.DoubleValue
0.000

@<SCITEGIC>MOL_PROPERTY
Tether
SciTegic.value.DoubleValue
0.000

@<TRIPOS>MOLECULE
guest-1_confgen4.mol2 : confsearch ligand conformer 211
          17          16           1
SMALL
USER_CHARGES
 
@<TRIPOS>ATOM
       1    N1      19.120302   16.748704   20.866240 N.4        1 MOL1        -0.5891
       2    H1      20.004049   16.244150   20.985033 H          1 MOL1         0.3726
       3    H2      19.023490   16.954551   19.867265 H          1 MOL1         0.3726
       4    H3      18.370121   16.093066   21.107644 H          1 MOL1         0.3726
       5    C1      19.065144   18.004698   21.712878 C.3        1 MOL1         0.0314
       6    H4      19.142864   17.708040   22.762390 H          1 MOL1         0.0999
       7    H5      18.088421   18.471931   21.560463 H          1 MOL1         0.0999
       8    C2      20.179095   19.012694   21.376251 C.3        1 MOL1        -0.1308
       9    H6      21.158165   18.535200   21.515577 H          1 MOL1         0.1025
      10    H7      20.107261   19.296574   20.317836 H          1 MOL1         0.1025
      11    C3      20.086728   20.275841   22.260247 C.3        1 MOL1        -0.1243
      12    H8      20.155237   19.991976   23.319989 H          1 MOL1         0.1025
      13    H9      19.105656   20.752463   22.123661 H          1 MOL1         0.1025
      14    C4      21.201142   21.291627   21.928260 C.3        1 MOL1        -0.2258
      15    H10     21.118069   22.180898   22.566495 H          1 MOL1         0.1036
      16    H11     21.137398   21.620877   20.882919 H          1 MOL1         0.1036
      17    H12     22.195265   20.854356   22.088635 H          1 MOL1         0.1036
@<TRIPOS>BOND
    1     1     2    1
    2     1     3    1
    3     1     4    1
    4     1     5    1
    5     5     6    1
    6     5     7    1
    7     5     8    1
    8     8     9    1
    9     8    10    1
   10     8    11    1
   11    11    12    1
   12    11    13    1
   13    11    14    1
   14    14    15    1
   15    14    16    1
   16    14    17    1
@<TRIPOS>SUBSTRUCTURE
       1 MOL1            1 RESIDUE      1      MOL     
@<SCITEGIC>MOL_PROPERTY
VConf Rank
SciTegic.value.IntegerValue
211

@<SCITEGIC>MOL_PROPERTY
Conf_Id
SciTegic.value.IntegerValue
7

@<SCITEGIC>MOL_PROPERTY
Delta U+W
SciTegic.value.DoubleValue
0.000

@<SCITEGIC>MOL_PROPERTY
U+W
SciTegic.value.DoubleValue
-15.865

@<SCITEGIC>MOL_PROPERTY
Grad RMS
SciTegic.value.DoubleValue
0.000000

@<SCITEGIC>MOL_PROPERTY
U
SciTegic.value.DoubleValue
44.664

@<SCITEGIC>MOL_PROPERTY
W
SciTegic.value.DoubleValue
-60.529

@<SCITEGIC>MOL_PROPERTY
W(PB)
SciTegic.value.DoubleValue
-62.309

@<SCITEGIC>MOL_PROPERTY
W(SA)
SciTegic.value.DoubleValue
1.780

@<SCITEGIC>MOL_PROPERTY
Valence
SciTegic.value.DoubleValue
0.872

@<SCITEGIC>MOL_PROPERTY
Coulomb
SciTegic.value.DoubleValue
43.648

@<SCITEGIC>MOL_PROPERTY
VdW
SciTegic.value.DoubleValue
0.144

@<SCITEGIC>MOL_PROPERTY
VdW6
SciTegic.value.DoubleValue
-2.370

@<SCITEGIC>MOL_PROPERTY
VdW12
SciTegic.value.DoubleValue
2.515

@<SCITEGIC>MOL_PROPERTY
Bond
SciTegic.value.DoubleValue
0.080

@<SCITEGIC>MOL_PROPERTY
Angle
SciTegic.value.DoubleValue
0.376

@<SCITEGIC>MOL_PROPERTY
Pdih
SciTegic.value.DoubleValue
0.416

@<SCITEGIC>MOL_PROPERTY
Idih
SciTegic.value.DoubleValue
0.000

@<SCITEGIC>MOL_PROPERTY
Tether
SciTegic.value.DoubleValue
0.000

@<TRIPOS>MOLECULE
guest-1_confgen4.mol2 : confsearch ligand conformer 212
          17          16           1
SMALL
USER_CHARGES
 
@<TRIPOS>ATOM
       1    N1      17.745225   18.099224   21.361496 N.4        1 MOL1        -0.5891
       2    H1      17.091842   18.570656   21.994340 H          1 MOL1         0.3726
       3    H2      17.958389   17.186342   21.774839 H          1 MOL1         0.3726
       4    H3      17.235724   17.918532   20.490518 H          1 MOL1         0.3726
       5    C1      18.996656   18.920322   21.122593 C.3        1 MOL1         0.0314
       6    H4      18.698439   19.862653   20.655166 H          1 MOL1         0.0999
       7    H5      19.628149   18.372814   20.418114 H          1 MOL1         0.0999
       8    C2      19.787581   19.210243   22.412687 C.3        1 MOL1        -0.1308
       9    H6      19.132532   19.724568   23.128409 H          1 MOL1         0.1025
      10    H7      20.085650   18.263765   22.883031 H          1 MOL1         0.1025
      11    C3      21.040444   20.081489   22.161150 C.3        1 MOL1        -0.1243
      12    H8      21.510968   20.317082   23.126078 H          1 MOL1         0.1025
      13    H9      20.740590   21.042986   21.720931 H          1 MOL1         0.1025
      14    C4      22.080918   19.394111   21.247431 C.3        1 MOL1        -0.2258
      15    H10     22.393189   18.426859   21.662203 H          1 MOL1         0.1036
      16    H11     22.977143   20.019819   21.146050 H          1 MOL1         0.1036
      17    H12     21.681943   19.222308   20.239764 H          1 MOL1         0.1036
@<TRIPOS>BOND
    1     1     2    1
    2     1     3    1
    3     1     4    1
    4     1     5    1
    5     5     6    1
    6     5     7    1
    7     5     8    1
    8     8     9    1
    9     8    10    1
   10     8    11    1
   11    11    12    1
   12    11    13    1
   13    11    14    1
   14    14    15    1
   15    14    16    1
   16    14    17    1
@<TRIPOS>SUBSTRUCTURE
       1 MOL1            1 RESIDUE      1      MOL     
@<SCITEGIC>MOL_PROPERTY
VConf Rank
SciTegic.value.IntegerValue
212

@<SCITEGIC>MOL_PROPERTY
Conf_Id
SciTegic.value.IntegerValue
36

@<SCITEGIC>MOL_PROPERTY
Delta U+W
SciTegic.value.DoubleValue
0.275

@<SCITEGIC>MOL_PROPERTY
U+W
SciTegic.value.DoubleValue
-15.590

@<SCITEGIC>MOL_PROPERTY
Grad RMS
SciTegic.value.DoubleValue
0.000000

@<SCITEGIC>MOL_PROPERTY
U
SciTegic.value.DoubleValue
45.174

@<SCITEGIC>MOL_PROPERTY
W
SciTegic.value.DoubleValue
-60.765

@<SCITEGIC>MOL_PROPERTY
W(PB)
SciTegic.value.DoubleValue
-62.518

@<SCITEGIC>MOL_PROPERTY
W(SA)
SciTegic.value.DoubleValue
1.754

@<SCITEGIC>MOL_PROPERTY
Valence
SciTegic.value.DoubleValue
1.161

@<SCITEGIC>MOL_PROPERTY
Coulomb
SciTegic.value.DoubleValue
43.789

@<SCITEGIC>MOL_PROPERTY
VdW
SciTegic.value.DoubleValue
0.224

@<SCITEGIC>MOL_PROPERTY
VdW6
SciTegic.value.DoubleValue
-2.897

@<SCITEGIC>MOL_PROPERTY
VdW12
SciTegic.value.DoubleValue
3.121

@<SCITEGIC>MOL_PROPERTY
Bond
SciTegic.value.DoubleValue
0.100

@<SCITEGIC>MOL_PROPERTY
Angle
SciTegic.value.DoubleValue
0.500

@<SCITEGIC>MOL_PROPERTY
Pdih
SciTegic.value.DoubleValue
0.561

@<SCITEGIC>MOL_PROPERTY
Idih
SciTegic.value.DoubleValue
0.000

@<SCITEGIC>MOL_PROPERTY
Tether
SciTegic.value.DoubleValue
0.000

@<TRIPOS>MOLECULE
guest-1_confgen4.mol2 : confsearch ligand conformer 213
          17          16           1
SMALL
USER_CHARGES
 
@<TRIPOS>ATOM
       1    N1      19.484837   20.435965   22.674241 N.4        1 MOL1        -0.5891
       2    H1      20.211194   20.686967   21.998779 H          1 MOL1         0.3726
       3    H2      19.950512   20.279229   23.573163 H          1 MOL1         0.3726
       4    H3      18.882966   21.257577   22.790548 H          1 MOL1         0.3726
       5    C1      18.697958   19.218899   22.227475 C.3        1 MOL1         0.0314
       6    H4      18.169850   19.466058   21.302642 H          1 MOL1         0.0999
       7    H5      17.950605   19.019887   23.000390 H          1 MOL1         0.0999
       8    C2      19.553841   17.951995   22.017641 C.3        1 MOL1        -0.1308
       9    H6      20.267993   17.840039   22.844189 H          1 MOL1         0.1025
      10    H7      18.885527   17.082716   22.077281 H          1 MOL1         0.1025
      11    C3      20.291814   17.893158   20.655790 C.3        1 MOL1        -0.1243
      12    H8      19.560560   17.942533   19.836735 H          1 MOL1         0.1025
      13    H9      20.779662   16.912133   20.568709 H          1 MOL1         0.1025
      14    C4      21.359850   18.993029   20.459666 C.3        1 MOL1        -0.2258
      15    H10     20.901534   19.980311   20.329680 H          1 MOL1         0.1036
      16    H11     21.952277   18.791601   19.557661 H          1 MOL1         0.1036
      17    H12     22.052218   19.032621   21.310672 H          1 MOL1         0.1036
@<TRIPOS>BOND
    1     1     2    1
    2     1     3    1
    3     1     4    1
    4     1     5    1
    5     5     6    1
    6     5     7    1
    7     5     8    1
    8     8     9    1
    9     8    10    1
   10     8    11    1
   11    11    12    1
   12    11    13    1
   13    11    14    1
   14    14    15    1
   15    14    16    1
   16    14    17    1
@<TRIPOS>SUBSTRUCTURE
       1 MOL1            1 RESIDUE      1      MOL     
@<SCITEGIC>MOL_PROPERTY
VConf Rank
SciTegic.value.IntegerValue
213

@<SCITEGIC>MOL_PROPERTY
Conf_Id
SciTegic.value.IntegerValue
19

@<SCITEGIC>MOL_PROPERTY
Delta U+W
SciTegic.value.DoubleValue
2.662

@<SCITEGIC>MOL_PROPERTY
U+W
SciTegic.value.DoubleValue
-13.203

@<SCITEGIC>MOL_PROPERTY
Grad RMS
SciTegic.value.DoubleValue
0.000000

@<SCITEGIC>MOL_PROPERTY
U
SciTegic.value.DoubleValue
47.423

@<SCITEGIC>MOL_PROPERTY
W
SciTegic.value.DoubleValue
-60.626

@<SCITEGIC>MOL_PROPERTY
W(PB)
SciTegic.value.DoubleValue
-62.328

@<SCITEGIC>MOL_PROPERTY
W(SA)
SciTegic.value.DoubleValue
1.702

@<SCITEGIC>MOL_PROPERTY
Valence
SciTegic.value.DoubleValue
2.414

@<SCITEGIC>MOL_PROPERTY
Coulomb
SciTegic.value.DoubleValue
44.831

@<SCITEGIC>MOL_PROPERTY
VdW
SciTegic.value.DoubleValue
0.178

@<SCITEGIC>MOL_PROPERTY
VdW6
SciTegic.value.DoubleValue
-3.743

@<SCITEGIC>MOL_PROPERTY
VdW12
SciTegic.value.DoubleValue
3.921

@<SCITEGIC>MOL_PROPERTY
Bond
SciTegic.value.DoubleValue
0.138

@<SCITEGIC>MOL_PROPERTY
Angle
SciTegic.value.DoubleValue
0.941

@<SCITEGIC>MOL_PROPERTY
Pdih
SciTegic.value.DoubleValue
1.335

@<SCITEGIC>MOL_PROPERTY
Idih
SciTegic.value.DoubleValue
0.000

@<SCITEGIC>MOL_PROPERTY
Tether
SciTegic.value.DoubleValue
0.000

@<TRIPOS>MOLECULE
guest-1_confgen4.mol2 : confsearch ligand conformer 214
          17          16           1
SMALL
USER_CHARGES
 
@<TRIPOS>ATOM
       1    N1      20.087023   19.476749   19.800369 N.4        1 MOL1        -0.5891
       2    H1      19.618779   19.689248   18.913569 H          1 MOL1         0.3726
       3    H2      21.073907   19.309191   19.582504 H          1 MOL1         0.3726
       4    H3      20.044983   20.322725   20.374304 H          1 MOL1         0.3726
       5    C1      19.455318   18.289626   20.501601 C.3        1 MOL1         0.0314
       6    H4      19.544053   17.434671   19.825794 H          1 MOL1         0.0999
       7    H5      18.391626   18.496588   20.646603 H          1 MOL1         0.0999
       8    C2      20.106804   17.931269   21.853917 C.3        1 MOL1        -0.1308
       9    H6      19.856415   16.886212   22.079766 H          1 MOL1         0.1025
      10    H7      21.200681   17.966340   21.764850 H          1 MOL1         0.1025
      11    C3      19.634693   18.802664   23.045758 C.3        1 MOL1        -0.1243
      12    H8      20.076005   18.397159   23.967061 H          1 MOL1         0.1025
      13    H9      18.545958   18.708965   23.163653 H          1 MOL1         0.1025
      14    C4      20.013968   20.296881   22.934644 C.3        1 MOL1        -0.2258
      15    H10     21.083548   20.421864   22.721267 H          1 MOL1         0.1036
      16    H11     19.800105   20.814938   23.878591 H          1 MOL1         0.1036
      17    H12     19.435346   20.801754   22.152354 H          1 MOL1         0.1036
@<TRIPOS>BOND
    1     1     2    1
    2     1     3    1
    3     1     4    1
    4     1     5    1
    5     5     6    1
    6     5     7    1
    7     5     8    1
    8     8     9    1
    9     8    10    1
   10     8    11    1
   11    11    12    1
   12    11    13    1
   13    11    14    1
   14    14    15    1
   15    14    16    1
   16    14    17    1
@<TRIPOS>SUBSTRUCTURE
       1 MOL1            1 RESIDUE      1      MOL     
@<SCITEGIC>MOL_PROPERTY
VConf Rank
SciTegic.value.IntegerValue
214

@<SCITEGIC>MOL_PROPERTY
Conf_Id
SciTegic.value.IntegerValue
44

@<SCITEGIC>MOL_PROPERTY
Delta U+W
SciTegic.value.DoubleValue
2.712

@<SCITEGIC>MOL_PROPERTY
U+W
SciTegic.value.DoubleValue
-13.153

@<SCITEGIC>MOL_PROPERTY
Grad RMS
SciTegic.value.DoubleValue
0.000000

@<SCITEGIC>MOL_PROPERTY
U
SciTegic.value.DoubleValue
47.423

@<SCITEGIC>MOL_PROPERTY
W
SciTegic.value.DoubleValue
-60.576

@<SCITEGIC>MOL_PROPERTY
W(PB)
SciTegic.value.DoubleValue
-62.262

@<SCITEGIC>MOL_PROPERTY
W(SA)
SciTegic.value.DoubleValue
1.687

@<SCITEGIC>MOL_PROPERTY
Valence
SciTegic.value.DoubleValue
2.414

@<SCITEGIC>MOL_PROPERTY
Coulomb
SciTegic.value.DoubleValue
44.831

@<SCITEGIC>MOL_PROPERTY
VdW
SciTegic.value.DoubleValue
0.178

@<SCITEGIC>MOL_PROPERTY
VdW6
SciTegic.value.DoubleValue
-3.743

@<SCITEGIC>MOL_PROPERTY
VdW12
SciTegic.value.DoubleValue
3.922

@<SCITEGIC>MOL_PROPERTY
Bond
SciTegic.value.DoubleValue
0.138

@<SCITEGIC>MOL_PROPERTY
Angle
SciTegic.value.DoubleValue
0.941

@<SCITEGIC>MOL_PROPERTY
Pdih
SciTegic.value.DoubleValue
1.335

@<SCITEGIC>MOL_PROPERTY
Idih
SciTegic.value.DoubleValue
0.000

@<SCITEGIC>MOL_PROPERTY
Tether
SciTegic.value.DoubleValue
0.000

@<TRIPOS>MOLECULE
guest-1_confgen4.mol2 : confsearch ligand conformer 215
          17          16           1
SMALL
USER_CHARGES
 
@<TRIPOS>ATOM
       1    N1      18.980861   17.293162   21.460942 N.4        1 MOL1        -0.5891
       2    H1      18.382894   17.913098   22.014623 H          1 MOL1         0.3726
       3    H2      19.377390   16.601219   22.103871 H          1 MOL1         0.3726
       4    H3      18.368079   16.783627   20.816318 H          1 MOL1         0.3726
       5    C1      20.059118   18.063696   20.723719 C.3        1 MOL1         0.0314
       6    H4      19.569931   18.759527   20.037191 H          1 MOL1         0.0999
       7    H5      20.631705   17.347684   20.127892 H          1 MOL1         0.0999
       8    C2      21.017636   18.836969   21.652810 C.3        1 MOL1        -0.1308
       9    H6      21.534107   18.125420   22.310613 H          1 MOL1         0.1025
      10    H7      21.797481   19.307765   21.039624 H          1 MOL1         0.1025
      11    C3      20.322617   19.921347   22.513409 C.3        1 MOL1        -0.1243
      12    H8      21.077030   20.405691   23.149157 H          1 MOL1         0.1025
      13    H9      19.602648   19.454825   23.199452 H          1 MOL1         0.1025
      14    C4      19.610676   21.001566   21.667202 C.3        1 MOL1        -0.2258
      15    H10     20.310982   21.484034   20.973038 H          1 MOL1         0.1036
      16    H11     19.189818   21.782071   22.314241 H          1 MOL1         0.1036
      17    H12     18.785669   20.577062   21.081447 H          1 MOL1         0.1036
@<TRIPOS>BOND
    1     1     2    1
    2     1     3    1
    3     1     4    1
    4     1     5    1
    5     5     6    1
    6     5     7    1
    7     5     8    1
    8     8     9    1
    9     8    10    1
   10     8    11    1
   11    11    12    1
   12    11    13    1
   13    11    14    1
   14    14    15    1
   15    14    16    1
   16    14    17    1
@<TRIPOS>SUBSTRUCTURE
       1 MOL1            1 RESIDUE      1      MOL     
@<SCITEGIC>MOL_PROPERTY
VConf Rank
SciTegic.value.IntegerValue
215

@<SCITEGIC>MOL_PROPERTY
Conf_Id
SciTegic.value.IntegerValue
1

@<SCITEGIC>MOL_PROPERTY
Delta U+W
SciTegic.value.DoubleValue
0.685

@<SCITEGIC>MOL_PROPERTY
U+W
SciTegic.value.DoubleValue
-15.179

@<SCITEGIC>MOL_PROPERTY
Grad RMS
SciTegic.value.DoubleValue
0.000000

@<SCITEGIC>MOL_PROPERTY
U
SciTegic.value.DoubleValue
45.697

@<SCITEGIC>MOL_PROPERTY
W
SciTegic.value.DoubleValue
-60.876

@<SCITEGIC>MOL_PROPERTY
W(PB)
SciTegic.value.DoubleValue
-62.586

@<SCITEGIC>MOL_PROPERTY
W(SA)
SciTegic.value.DoubleValue
1.710

@<SCITEGIC>MOL_PROPERTY
Valence
SciTegic.value.DoubleValue
1.263

@<SCITEGIC>MOL_PROPERTY
Coulomb
SciTegic.value.DoubleValue
44.179

@<SCITEGIC>MOL_PROPERTY
VdW
SciTegic.value.DoubleValue
0.255

@<SCITEGIC>MOL_PROPERTY
VdW6
SciTegic.value.DoubleValue
-3.552

@<SCITEGIC>MOL_PROPERTY
VdW12
SciTegic.value.DoubleValue
3.807

@<SCITEGIC>MOL_PROPERTY
Bond
SciTegic.value.DoubleValue
0.125

@<SCITEGIC>MOL_PROPERTY
Angle
SciTegic.value.DoubleValue
0.616

@<SCITEGIC>MOL_PROPERTY
Pdih
SciTegic.value.DoubleValue
0.521

@<SCITEGIC>MOL_PROPERTY
Idih
SciTegic.value.DoubleValue
0.000

@<SCITEGIC>MOL_PROPERTY
Tether
SciTegic.value.DoubleValue
0.000

@<TRIPOS>MOLECULE
guest-1_confgen4.mol2 : confsearch ligand conformer 216
          17          16           1
SMALL
USER_CHARGES
 
@<TRIPOS>ATOM
       1    N1      17.982664   18.823376   21.956475 N.4        1 MOL1        -0.5891
       2    H1      17.420283   19.091188   21.143221 H          1 MOL1         0.3726
       3    H2      18.282767   19.688289   22.415071 H          1 MOL1         0.3726
       4    H3      17.354074   18.342053   22.607528 H          1 MOL1         0.3726
       5    C1      19.163453   17.955221   21.566727 C.3        1 MOL1         0.0314
       6    H4      18.769484   17.038307   21.119966 H          1 MOL1         0.0999
       7    H5      19.700268   17.682762   22.479086 H          1 MOL1         0.0999
       8    C2      20.132761   18.631010   20.574924 C.3        1 MOL1        -0.1308
       9    H6      20.914951   17.910266   20.301957 H          1 MOL1         0.1025
      10    H7      19.594288   18.863783   19.646693 H          1 MOL1         0.1025
      11    C3      20.796081   19.919785   21.121387 C.3        1 MOL1        -0.1243
      12    H8      20.032156   20.685462   21.313249 H          1 MOL1         0.1025
      13    H9      21.453767   20.335604   20.345212 H          1 MOL1         0.1025
      14    C4      21.624050   19.677499   22.404182 C.3        1 MOL1        -0.2258
      15    H10     22.127491   20.601199   22.717699 H          1 MOL1         0.1036
      16    H11     22.396450   18.915527   22.237253 H          1 MOL1         0.1036
      17    H12     20.990998   19.346708   23.237111 H          1 MOL1         0.1036
@<TRIPOS>BOND
    1     1     2    1
    2     1     3    1
    3     1     4    1
    4     1     5    1
    5     5     6    1
    6     5     7    1
    7     5     8    1
    8     8     9    1
    9     8    10    1
   10     8    11    1
   11    11    12    1
   12    11    13    1
   13    11    14    1
   14    14    15    1
   15    14    16    1
   16    14    17    1
@<TRIPOS>SUBSTRUCTURE
       1 MOL1            1 RESIDUE      1      MOL     
@<SCITEGIC>MOL_PROPERTY
VConf Rank
SciTegic.value.IntegerValue
216

@<SCITEGIC>MOL_PROPERTY
Conf_Id
SciTegic.value.IntegerValue
43

@<SCITEGIC>MOL_PROPERTY
Delta U+W
SciTegic.value.DoubleValue
0.642

@<SCITEGIC>MOL_PROPERTY
U+W
SciTegic.value.DoubleValue
-15.222

@<SCITEGIC>MOL_PROPERTY
Grad RMS
SciTegic.value.DoubleValue
0.000000

@<SCITEGIC>MOL_PROPERTY
U
SciTegic.value.DoubleValue
45.697

@<SCITEGIC>MOL_PROPERTY
W
SciTegic.value.DoubleValue
-60.919

@<SCITEGIC>MOL_PROPERTY
W(PB)
SciTegic.value.DoubleValue
-62.631

@<SCITEGIC>MOL_PROPERTY
W(SA)
SciTegic.value.DoubleValue
1.712

@<SCITEGIC>MOL_PROPERTY
Valence
SciTegic.value.DoubleValue
1.262

@<SCITEGIC>MOL_PROPERTY
Coulomb
SciTegic.value.DoubleValue
44.179

@<SCITEGIC>MOL_PROPERTY
VdW
SciTegic.value.DoubleValue
0.255

@<SCITEGIC>MOL_PROPERTY
VdW6
SciTegic.value.DoubleValue
-3.552

@<SCITEGIC>MOL_PROPERTY
VdW12
SciTegic.value.DoubleValue
3.807

@<SCITEGIC>MOL_PROPERTY
Bond
SciTegic.value.DoubleValue
0.125

@<SCITEGIC>MOL_PROPERTY
Angle
SciTegic.value.DoubleValue
0.616

@<SCITEGIC>MOL_PROPERTY
Pdih
SciTegic.value.DoubleValue
0.521

@<SCITEGIC>MOL_PROPERTY
Idih
SciTegic.value.DoubleValue
0.000

@<SCITEGIC>MOL_PROPERTY
Tether
SciTegic.value.DoubleValue
0.000

@<TRIPOS>MOLECULE
guest-1_confgen4.mol2 : confsearch ligand conformer 217
          17          16           1
SMALL
USER_CHARGES
 
@<TRIPOS>ATOM
       1    N1      21.470327   20.822313   20.509850 N.4        1 MOL1        -0.5891
       2    H1      21.922918   21.157468   21.365729 H          1 MOL1         0.3726
       3    H2      20.737745   21.498141   20.272625 H          1 MOL1         0.3726
       4    H3      22.172272   20.872484   19.764421 H          1 MOL1         0.3726
       5    C1      20.918611   19.419809   20.670936 C.3        1 MOL1         0.0314
       6    H4      21.755236   18.751167   20.891165 H          1 MOL1         0.0999
       7    H5      20.480827   19.117479   19.715705 H          1 MOL1         0.0999
       8    C2      19.860331   19.308222   21.783524 C.3        1 MOL1        -0.1308
       9    H6      20.299058   19.627316   22.738348 H          1 MOL1         0.1025
      10    H7      19.028974   19.992249   21.566860 H          1 MOL1         0.1025
      11    C3      19.325176   17.865293   21.914231 C.3        1 MOL1        -0.1243
      12    H8      20.157385   17.179632   22.127827 H          1 MOL1         0.1025
      13    H9      18.888788   17.544142   20.957804 H          1 MOL1         0.1025
      14    C4      18.263100   17.745636   23.028517 C.3        1 MOL1        -0.2258
      15    H10     17.895967   16.713949   23.105225 H          1 MOL1         0.1036
      16    H11     17.401543   18.394835   22.824882 H          1 MOL1         0.1036
      17    H12     18.680148   18.027510   24.004132 H          1 MOL1         0.1036
@<TRIPOS>BOND
    1     1     2    1
    2     1     3    1
    3     1     4    1
    4     1     5    1
    5     5     6    1
    6     5     7    1
    7     5     8    1
    8     8     9    1
    9     8    10    1
   10     8    11    1
   11    11    12    1
   12    11    13    1
   13    11    14    1
   14    14    15    1
   15    14    16    1
   16    14    17    1
@<TRIPOS>SUBSTRUCTURE
       1 MOL1            1 RESIDUE      1      MOL     
@<SCITEGIC>MOL_PROPERTY
VConf Rank
SciTegic.value.IntegerValue
217

@<SCITEGIC>MOL_PROPERTY
Conf_Id
SciTegic.value.IntegerValue
7

@<SCITEGIC>MOL_PROPERTY
Delta U+W
SciTegic.value.DoubleValue
0.000

@<SCITEGIC>MOL_PROPERTY
U+W
SciTegic.value.DoubleValue
-15.865

@<SCITEGIC>MOL_PROPERTY
Grad RMS
SciTegic.value.DoubleValue
0.000000

@<SCITEGIC>MOL_PROPERTY
U
SciTegic.value.DoubleValue
44.664

@<SCITEGIC>MOL_PROPERTY
W
SciTegic.value.DoubleValue
-60.529

@<SCITEGIC>MOL_PROPERTY
W(PB)
SciTegic.value.DoubleValue
-62.309

@<SCITEGIC>MOL_PROPERTY
W(SA)
SciTegic.value.DoubleValue
1.780

@<SCITEGIC>MOL_PROPERTY
Valence
SciTegic.value.DoubleValue
0.872

@<SCITEGIC>MOL_PROPERTY
Coulomb
SciTegic.value.DoubleValue
43.648

@<SCITEGIC>MOL_PROPERTY
VdW
SciTegic.value.DoubleValue
0.144

@<SCITEGIC>MOL_PROPERTY
VdW6
SciTegic.value.DoubleValue
-2.370

@<SCITEGIC>MOL_PROPERTY
VdW12
SciTegic.value.DoubleValue
2.515

@<SCITEGIC>MOL_PROPERTY
Bond
SciTegic.value.DoubleValue
0.080

@<SCITEGIC>MOL_PROPERTY
Angle
SciTegic.value.DoubleValue
0.376

@<SCITEGIC>MOL_PROPERTY
Pdih
SciTegic.value.DoubleValue
0.416

@<SCITEGIC>MOL_PROPERTY
Idih
SciTegic.value.DoubleValue
0.000

@<SCITEGIC>MOL_PROPERTY
Tether
SciTegic.value.DoubleValue
0.000

@<TRIPOS>MOLECULE
guest-1_confgen4.mol2 : confsearch ligand conformer 218
          17          16           1
SMALL
USER_CHARGES
 
@<TRIPOS>ATOM
       1    N1      21.229674   17.376020   20.535826 N.4        1 MOL1        -0.5891
       2    H1      20.614441   16.840698   19.915690 H          1 MOL1         0.3726
       3    H2      21.406305   16.793683   21.360042 H          1 MOL1         0.3726
       4    H3      22.125384   17.478666   20.047963 H          1 MOL1         0.3726
       5    C1      20.632742   18.718889   20.906947 C.3        1 MOL1         0.0314
       6    H4      20.499932   19.295394   19.987484 H          1 MOL1         0.0999
       7    H5      21.353460   19.243478   21.539568 H          1 MOL1         0.0999
       8    C2      19.284301   18.600895   21.642979 C.3        1 MOL1        -0.1308
       9    H6      18.580196   18.037901   21.015961 H          1 MOL1         0.1025
      10    H7      19.417375   18.020440   22.565611 H          1 MOL1         0.1025
      11    C3      18.666866   19.977996   21.981170 C.3        1 MOL1        -0.1243
      12    H8      17.675304   19.824161   22.429637 H          1 MOL1         0.1025
      13    H9      18.502104   20.547365   21.055506 H          1 MOL1         0.1025
      14    C4      19.536554   20.807817   22.953280 C.3        1 MOL1        -0.2258
      15    H10     19.721414   20.258178   23.885400 H          1 MOL1         0.1036
      16    H11     19.033028   21.747943   23.213342 H          1 MOL1         0.1036
      17    H12     20.506301   21.064250   22.508396 H          1 MOL1         0.1036
@<TRIPOS>BOND
    1     1     2    1
    2     1     3    1
    3     1     4    1
    4     1     5    1
    5     5     6    1
    6     5     7    1
    7     5     8    1
    8     8     9    1
    9     8    10    1
   10     8    11    1
   11    11    12    1
   12    11    13    1
   13    11    14    1
   14    14    15    1
   15    14    16    1
   16    14    17    1
@<TRIPOS>SUBSTRUCTURE
       1 MOL1            1 RESIDUE      1      MOL     
@<SCITEGIC>MOL_PROPERTY
VConf Rank
SciTegic.value.IntegerValue
218

@<SCITEGIC>MOL_PROPERTY
Conf_Id
SciTegic.value.IntegerValue
36

@<SCITEGIC>MOL_PROPERTY
Delta U+W
SciTegic.value.DoubleValue
0.275

@<SCITEGIC>MOL_PROPERTY
U+W
SciTegic.value.DoubleValue
-15.590

@<SCITEGIC>MOL_PROPERTY
Grad RMS
SciTegic.value.DoubleValue
0.000000

@<SCITEGIC>MOL_PROPERTY
U
SciTegic.value.DoubleValue
45.174

@<SCITEGIC>MOL_PROPERTY
W
SciTegic.value.DoubleValue
-60.765

@<SCITEGIC>MOL_PROPERTY
W(PB)
SciTegic.value.DoubleValue
-62.518

@<SCITEGIC>MOL_PROPERTY
W(SA)
SciTegic.value.DoubleValue
1.754

@<SCITEGIC>MOL_PROPERTY
Valence
SciTegic.value.DoubleValue
1.161

@<SCITEGIC>MOL_PROPERTY
Coulomb
SciTegic.value.DoubleValue
43.789

@<SCITEGIC>MOL_PROPERTY
VdW
SciTegic.value.DoubleValue
0.224

@<SCITEGIC>MOL_PROPERTY
VdW6
SciTegic.value.DoubleValue
-2.897

@<SCITEGIC>MOL_PROPERTY
VdW12
SciTegic.value.DoubleValue
3.121

@<SCITEGIC>MOL_PROPERTY
Bond
SciTegic.value.DoubleValue
0.100

@<SCITEGIC>MOL_PROPERTY
Angle
SciTegic.value.DoubleValue
0.500

@<SCITEGIC>MOL_PROPERTY
Pdih
SciTegic.value.DoubleValue
0.561

@<SCITEGIC>MOL_PROPERTY
Idih
SciTegic.value.DoubleValue
0.000

@<SCITEGIC>MOL_PROPERTY
Tether
SciTegic.value.DoubleValue
0.000

@<TRIPOS>MOLECULE
guest-1_confgen4.mol2 : confsearch ligand conformer 219
          17          16           1
SMALL
USER_CHARGES
 
@<TRIPOS>ATOM
       1    N1      21.023270   17.490351   21.794391 N.4        1 MOL1        -0.5891
       2    H1      21.440017   18.171112   21.154289 H          1 MOL1         0.3726
       3    H2      20.598281   16.756844   21.219211 H          1 MOL1         0.3726
       4    H3      21.791677   17.053301   22.313390 H          1 MOL1         0.3726
       5    C1      20.011815   18.136328   22.721592 C.3        1 MOL1         0.0314
       6    H4      20.532555   18.858954   23.355584 H          1 MOL1         0.0999
       7    H5      19.616941   17.345333   23.364973 H          1 MOL1         0.0999
       8    C2      18.837855   18.827867   21.996883 C.3        1 MOL1        -0.1308
       9    H6      18.469868   18.188769   21.183330 H          1 MOL1         0.1025
      10    H7      18.007938   18.914389   22.710745 H          1 MOL1         0.1025
      11    C3      19.158210   20.247841   21.464201 C.3        1 MOL1        -0.1243
      12    H8      19.464654   20.894966   22.298074 H          1 MOL1         0.1025
      13    H9      18.232038   20.684784   21.065109 H          1 MOL1         0.1025
      14    C4      20.237272   20.287135   20.358324 C.3        1 MOL1        -0.2258
      15    H10     21.231910   20.058377   20.758376 H          1 MOL1         0.1036
      16    H11     20.291239   21.289906   19.914822 H          1 MOL1         0.1036
      17    H12     20.007657   19.578460   19.551967 H          1 MOL1         0.1036
@<TRIPOS>BOND
    1     1     2    1
    2     1     3    1
    3     1     4    1
    4     1     5    1
    5     5     6    1
    6     5     7    1
    7     5     8    1
    8     8     9    1
    9     8    10    1
   10     8    11    1
   11    11    12    1
   12    11    13    1
   13    11    14    1
   14    14    15    1
   15    14    16    1
   16    14    17    1
@<TRIPOS>SUBSTRUCTURE
       1 MOL1            1 RESIDUE      1      MOL     
@<SCITEGIC>MOL_PROPERTY
VConf Rank
SciTegic.value.IntegerValue
219

@<SCITEGIC>MOL_PROPERTY
Conf_Id
SciTegic.value.IntegerValue
19

@<SCITEGIC>MOL_PROPERTY
Delta U+W
SciTegic.value.DoubleValue
2.662

@<SCITEGIC>MOL_PROPERTY
U+W
SciTegic.value.DoubleValue
-13.203

@<SCITEGIC>MOL_PROPERTY
Grad RMS
SciTegic.value.DoubleValue
0.000000

@<SCITEGIC>MOL_PROPERTY
U
SciTegic.value.DoubleValue
47.423

@<SCITEGIC>MOL_PROPERTY
W
SciTegic.value.DoubleValue
-60.626

@<SCITEGIC>MOL_PROPERTY
W(PB)
SciTegic.value.DoubleValue
-62.328

@<SCITEGIC>MOL_PROPERTY
W(SA)
SciTegic.value.DoubleValue
1.702

@<SCITEGIC>MOL_PROPERTY
Valence
SciTegic.value.DoubleValue
2.414

@<SCITEGIC>MOL_PROPERTY
Coulomb
SciTegic.value.DoubleValue
44.831

@<SCITEGIC>MOL_PROPERTY
VdW
SciTegic.value.DoubleValue
0.178

@<SCITEGIC>MOL_PROPERTY
VdW6
SciTegic.value.DoubleValue
-3.743

@<SCITEGIC>MOL_PROPERTY
VdW12
SciTegic.value.DoubleValue
3.921

@<SCITEGIC>MOL_PROPERTY
Bond
SciTegic.value.DoubleValue
0.138

@<SCITEGIC>MOL_PROPERTY
Angle
SciTegic.value.DoubleValue
0.941

@<SCITEGIC>MOL_PROPERTY
Pdih
SciTegic.value.DoubleValue
1.335

@<SCITEGIC>MOL_PROPERTY
Idih
SciTegic.value.DoubleValue
0.000

@<SCITEGIC>MOL_PROPERTY
Tether
SciTegic.value.DoubleValue
0.000

@<TRIPOS>MOLECULE
guest-1_confgen4.mol2 : confsearch ligand conformer 220
          17          16           1
SMALL
USER_CHARGES
 
@<TRIPOS>ATOM
       1    N1      19.313771   20.228872   22.931279 N.4        1 MOL1        -0.5891
       2    H1      18.516403   20.695323   23.375633 H          1 MOL1         0.3726
       3    H2      20.160228   20.678727   23.292694 H          1 MOL1         0.3726
       4    H3      19.321554   19.261442   23.264239 H          1 MOL1         0.3726
       5    C1      19.238808   20.302180   21.418320 C.3        1 MOL1         0.0314
       6    H4      19.237134   21.361948   21.149198 H          1 MOL1         0.0999
       7    H5      18.287730   19.870223   21.095575 H          1 MOL1         0.0999
       8    C2      20.404870   19.600509   20.690604 C.3        1 MOL1        -0.1308
       9    H6      20.469940   20.021712   19.678577 H          1 MOL1         0.1025
      10    H7      21.356049   19.846621   21.180926 H          1 MOL1         0.1025
      11    C3      20.248294   18.064072   20.558126 C.3        1 MOL1        -0.1243
      12    H8      21.072492   17.684469   19.937974 H          1 MOL1         0.1025
      13    H9      19.324182   17.832659   20.009960 H          1 MOL1         0.1025
      14    C4      20.253532   17.302841   21.903257 C.3        1 MOL1        -0.2258
      15    H10     21.118452   17.585018   22.517620 H          1 MOL1         0.1036
      16    H11     20.308789   16.220572   21.727770 H          1 MOL1         0.1036
      17    H12     19.336984   17.489659   22.474851 H          1 MOL1         0.1036
@<TRIPOS>BOND
    1     1     2    1
    2     1     3    1
    3     1     4    1
    4     1     5    1
    5     5     6    1
    6     5     7    1
    7     5     8    1
    8     8     9    1
    9     8    10    1
   10     8    11    1
   11    11    12    1
   12    11    13    1
   13    11    14    1
   14    14    15    1
   15    14    16    1
   16    14    17    1
@<TRIPOS>SUBSTRUCTURE
       1 MOL1            1 RESIDUE      1      MOL     
@<SCITEGIC>MOL_PROPERTY
VConf Rank
SciTegic.value.IntegerValue
220

@<SCITEGIC>MOL_PROPERTY
Conf_Id
SciTegic.value.IntegerValue
44

@<SCITEGIC>MOL_PROPERTY
Delta U+W
SciTegic.value.DoubleValue
2.712

@<SCITEGIC>MOL_PROPERTY
U+W
SciTegic.value.DoubleValue
-13.153

@<SCITEGIC>MOL_PROPERTY
Grad RMS
SciTegic.value.DoubleValue
0.000000

@<SCITEGIC>MOL_PROPERTY
U
SciTegic.value.DoubleValue
47.423

@<SCITEGIC>MOL_PROPERTY
W
SciTegic.value.DoubleValue
-60.576

@<SCITEGIC>MOL_PROPERTY
W(PB)
SciTegic.value.DoubleValue
-62.262

@<SCITEGIC>MOL_PROPERTY
W(SA)
SciTegic.value.DoubleValue
1.687

@<SCITEGIC>MOL_PROPERTY
Valence
SciTegic.value.DoubleValue
2.414

@<SCITEGIC>MOL_PROPERTY
Coulomb
SciTegic.value.DoubleValue
44.831

@<SCITEGIC>MOL_PROPERTY
VdW
SciTegic.value.DoubleValue
0.178

@<SCITEGIC>MOL_PROPERTY
VdW6
SciTegic.value.DoubleValue
-3.743

@<SCITEGIC>MOL_PROPERTY
VdW12
SciTegic.value.DoubleValue
3.922

@<SCITEGIC>MOL_PROPERTY
Bond
SciTegic.value.DoubleValue
0.138

@<SCITEGIC>MOL_PROPERTY
Angle
SciTegic.value.DoubleValue
0.941

@<SCITEGIC>MOL_PROPERTY
Pdih
SciTegic.value.DoubleValue
1.335

@<SCITEGIC>MOL_PROPERTY
Idih
SciTegic.value.DoubleValue
0.000

@<SCITEGIC>MOL_PROPERTY
Tether
SciTegic.value.DoubleValue
0.000

@<TRIPOS>MOLECULE
guest-1_confgen4.mol2 : confsearch ligand conformer 221
          17          16           1
SMALL
USER_CHARGES
 
@<TRIPOS>ATOM
       1    N1      19.357514   20.876545   21.095822 N.4        1 MOL1        -0.5891
       2    H1      20.266581   20.956052   21.560280 H          1 MOL1         0.3726
       3    H2      18.653765   21.245253   21.742483 H          1 MOL1         0.3726
       4    H3      19.378280   21.506722   20.287668 H          1 MOL1         0.3726
       5    C1      19.057811   19.446790   20.688591 C.3        1 MOL1         0.0314
       6    H4      19.826110   19.127600   19.979620 H          1 MOL1         0.0999
       7    H5      18.095946   19.443340   20.168648 H          1 MOL1         0.0999
       8    C2      19.001367   18.460574   21.873544 C.3        1 MOL1        -0.1308
       9    H6      18.200018   18.766433   22.559138 H          1 MOL1         0.1025
      10    H7      18.716883   17.470502   21.493243 H          1 MOL1         0.1025
      11    C3      20.331683   18.341726   22.658204 C.3        1 MOL1        -0.1243
      12    H8      20.191769   17.632985   23.486464 H          1 MOL1         0.1025
      13    H9      20.583369   19.304773   23.122799 H          1 MOL1         0.1025
      14    C4      21.511195   17.862688   21.781237 C.3        1 MOL1        -0.2258
      15    H10     21.283844   16.899638   21.305932 H          1 MOL1         0.1036
      16    H11     22.414813   17.730201   22.390244 H          1 MOL1         0.1036
      17    H12     21.747696   18.586940   20.991632 H          1 MOL1         0.1036
@<TRIPOS>BOND
    1     1     2    1
    2     1     3    1
    3     1     4    1
    4     1     5    1
    5     5     6    1
    6     5     7    1
    7     5     8    1
    8     8     9    1
    9     8    10    1
   10     8    11    1
   11    11    12    1
   12    11    13    1
   13    11    14    1
   14    14    15    1
   15    14    16    1
   16    14    17    1
@<TRIPOS>SUBSTRUCTURE
       1 MOL1            1 RESIDUE      1      MOL     
@<SCITEGIC>MOL_PROPERTY
VConf Rank
SciTegic.value.IntegerValue
221

@<SCITEGIC>MOL_PROPERTY
Conf_Id
SciTegic.value.IntegerValue
1

@<SCITEGIC>MOL_PROPERTY
Delta U+W
SciTegic.value.DoubleValue
0.685

@<SCITEGIC>MOL_PROPERTY
U+W
SciTegic.value.DoubleValue
-15.179

@<SCITEGIC>MOL_PROPERTY
Grad RMS
SciTegic.value.DoubleValue
0.000000

@<SCITEGIC>MOL_PROPERTY
U
SciTegic.value.DoubleValue
45.697

@<SCITEGIC>MOL_PROPERTY
W
SciTegic.value.DoubleValue
-60.876

@<SCITEGIC>MOL_PROPERTY
W(PB)
SciTegic.value.DoubleValue
-62.586

@<SCITEGIC>MOL_PROPERTY
W(SA)
SciTegic.value.DoubleValue
1.710

@<SCITEGIC>MOL_PROPERTY
Valence
SciTegic.value.DoubleValue
1.263

@<SCITEGIC>MOL_PROPERTY
Coulomb
SciTegic.value.DoubleValue
44.179

@<SCITEGIC>MOL_PROPERTY
VdW
SciTegic.value.DoubleValue
0.255

@<SCITEGIC>MOL_PROPERTY
VdW6
SciTegic.value.DoubleValue
-3.552

@<SCITEGIC>MOL_PROPERTY
VdW12
SciTegic.value.DoubleValue
3.807

@<SCITEGIC>MOL_PROPERTY
Bond
SciTegic.value.DoubleValue
0.125

@<SCITEGIC>MOL_PROPERTY
Angle
SciTegic.value.DoubleValue
0.616

@<SCITEGIC>MOL_PROPERTY
Pdih
SciTegic.value.DoubleValue
0.521

@<SCITEGIC>MOL_PROPERTY
Idih
SciTegic.value.DoubleValue
0.000

@<SCITEGIC>MOL_PROPERTY
Tether
SciTegic.value.DoubleValue
0.000

@<TRIPOS>MOLECULE
guest-1_confgen4.mol2 : confsearch ligand conformer 222
          17          16           1
SMALL
USER_CHARGES
 
@<TRIPOS>ATOM
       1    N1      20.400535   20.830512   22.290391 N.4        1 MOL1        -0.5891
       2    H1      20.653539   21.469992   21.531160 H          1 MOL1         0.3726
       3    H2      21.207539   20.222276   22.455444 H          1 MOL1         0.3726
       4    H3      20.279221   21.401841   23.132729 H          1 MOL1         0.3726
       5    C1      19.152572   20.032386   21.965676 C.3        1 MOL1         0.0314
       6    H4      18.328325   20.739718   21.839835 H          1 MOL1         0.0999
       7    H5      18.923487   19.396160   22.824479 H          1 MOL1         0.0999
       8    C2      19.280391   19.165921   20.695708 C.3        1 MOL1        -0.1308
       9    H6      18.315247   18.678294   20.504605 H          1 MOL1         0.1025
      10    H7      19.469815   19.817523   19.832411 H          1 MOL1         0.1025
      11    C3      20.388663   18.086806   20.778195 C.3        1 MOL1        -0.1243
      12    H8      21.373281   18.563594   20.877461 H          1 MOL1         0.1025
      13    H9      20.414400   17.532878   19.829298 H          1 MOL1         0.1025
      14    C4      20.175110   17.086925   21.937691 C.3        1 MOL1        -0.2258
      15    H10     20.944771   16.304489   21.918054 H          1 MOL1         0.1036
      16    H11     19.196490   16.595680   21.859924 H          1 MOL1         0.1036
      17    H12     20.232601   17.583046   22.914680 H          1 MOL1         0.1036
@<TRIPOS>BOND
    1     1     2    1
    2     1     3    1
    3     1     4    1
    4     1     5    1
    5     5     6    1
    6     5     7    1
    7     5     8    1
    8     8     9    1
    9     8    10    1
   10     8    11    1
   11    11    12    1
   12    11    13    1
   13    11    14    1
   14    14    15    1
   15    14    16    1
   16    14    17    1
@<TRIPOS>SUBSTRUCTURE
       1 MOL1            1 RESIDUE      1      MOL     
@<SCITEGIC>MOL_PROPERTY
VConf Rank
SciTegic.value.IntegerValue
222

@<SCITEGIC>MOL_PROPERTY
Conf_Id
SciTegic.value.IntegerValue
43

@<SCITEGIC>MOL_PROPERTY
Delta U+W
SciTegic.value.DoubleValue
0.642

@<SCITEGIC>MOL_PROPERTY
U+W
SciTegic.value.DoubleValue
-15.222

@<SCITEGIC>MOL_PROPERTY
Grad RMS
SciTegic.value.DoubleValue
0.000000

@<SCITEGIC>MOL_PROPERTY
U
SciTegic.value.DoubleValue
45.697

@<SCITEGIC>MOL_PROPERTY
W
SciTegic.value.DoubleValue
-60.919

@<SCITEGIC>MOL_PROPERTY
W(PB)
SciTegic.value.DoubleValue
-62.631

@<SCITEGIC>MOL_PROPERTY
W(SA)
SciTegic.value.DoubleValue
1.712

@<SCITEGIC>MOL_PROPERTY
Valence
SciTegic.value.DoubleValue
1.262

@<SCITEGIC>MOL_PROPERTY
Coulomb
SciTegic.value.DoubleValue
44.179

@<SCITEGIC>MOL_PROPERTY
VdW
SciTegic.value.DoubleValue
0.255

@<SCITEGIC>MOL_PROPERTY
VdW6
SciTegic.value.DoubleValue
-3.552

@<SCITEGIC>MOL_PROPERTY
VdW12
SciTegic.value.DoubleValue
3.807

@<SCITEGIC>MOL_PROPERTY
Bond
SciTegic.value.DoubleValue
0.125

@<SCITEGIC>MOL_PROPERTY
Angle
SciTegic.value.DoubleValue
0.616

@<SCITEGIC>MOL_PROPERTY
Pdih
SciTegic.value.DoubleValue
0.521

@<SCITEGIC>MOL_PROPERTY
Idih
SciTegic.value.DoubleValue
0.000

@<SCITEGIC>MOL_PROPERTY
Tether
SciTegic.value.DoubleValue
0.000

@<TRIPOS>MOLECULE
guest-1_confgen4.mol2 : confsearch ligand conformer 223
          17          16           1
SMALL
USER_CHARGES
 
@<TRIPOS>ATOM
       1    N1      21.744503   17.260249   21.986766 N.4        1 MOL1        -0.5891
       2    H1      21.976315   17.507751   22.953566 H          1 MOL1         0.3726
       3    H2      22.471718   17.665929   21.389876 H          1 MOL1         0.3726
       4    H3      21.834064   16.241763   21.912115 H          1 MOL1         0.3726
       5    C1      20.358955   17.734301   21.595755 C.3        1 MOL1         0.0314
       6    H4      19.635877   17.240251   22.250427 H          1 MOL1         0.0999
       7    H5      20.168575   17.410303   20.568962 H          1 MOL1         0.0999
       8    C2      20.189251   19.261171   21.696407 C.3        1 MOL1        -0.1308
       9    H6      20.396300   19.584715   22.725213 H          1 MOL1         0.1025
      10    H7      20.927056   19.754174   21.049428 H          1 MOL1         0.1025
      11    C3      18.765653   19.701346   21.290037 C.3        1 MOL1        -0.1243
      12    H8      18.026477   19.205606   21.935162 H          1 MOL1         0.1025
      13    H9      18.556607   19.374929   20.261408 H          1 MOL1         0.1025
      14    C4      18.587930   21.231920   21.388591 C.3        1 MOL1        -0.2258
      15    H10     17.570969   21.523927   21.096068 H          1 MOL1         0.1036
      16    H11     19.291204   21.754985   20.727519 H          1 MOL1         0.1036
      17    H12     18.756952   21.584325   22.414481 H          1 MOL1         0.1036
@<TRIPOS>BOND
    1     1     2    1
    2     1     3    1
    3     1     4    1
    4     1     5    1
    5     5     6    1
    6     5     7    1
    7     5     8    1
    8     8     9    1
    9     8    10    1
   10     8    11    1
   11    11    12    1
   12    11    13    1
   13    11    14    1
   14    14    15    1
   15    14    16    1
   16    14    17    1
@<TRIPOS>SUBSTRUCTURE
       1 MOL1            1 RESIDUE      1      MOL     
@<SCITEGIC>MOL_PROPERTY
VConf Rank
SciTegic.value.IntegerValue
223

@<SCITEGIC>MOL_PROPERTY
Conf_Id
SciTegic.value.IntegerValue
7

@<SCITEGIC>MOL_PROPERTY
Delta U+W
SciTegic.value.DoubleValue
0.000

@<SCITEGIC>MOL_PROPERTY
U+W
SciTegic.value.DoubleValue
-15.865

@<SCITEGIC>MOL_PROPERTY
Grad RMS
SciTegic.value.DoubleValue
0.000000

@<SCITEGIC>MOL_PROPERTY
U
SciTegic.value.DoubleValue
44.664

@<SCITEGIC>MOL_PROPERTY
W
SciTegic.value.DoubleValue
-60.529

@<SCITEGIC>MOL_PROPERTY
W(PB)
SciTegic.value.DoubleValue
-62.309

@<SCITEGIC>MOL_PROPERTY
W(SA)
SciTegic.value.DoubleValue
1.780

@<SCITEGIC>MOL_PROPERTY
Valence
SciTegic.value.DoubleValue
0.872

@<SCITEGIC>MOL_PROPERTY
Coulomb
SciTegic.value.DoubleValue
43.648

@<SCITEGIC>MOL_PROPERTY
VdW
SciTegic.value.DoubleValue
0.144

@<SCITEGIC>MOL_PROPERTY
VdW6
SciTegic.value.DoubleValue
-2.370

@<SCITEGIC>MOL_PROPERTY
VdW12
SciTegic.value.DoubleValue
2.515

@<SCITEGIC>MOL_PROPERTY
Bond
SciTegic.value.DoubleValue
0.080

@<SCITEGIC>MOL_PROPERTY
Angle
SciTegic.value.DoubleValue
0.376

@<SCITEGIC>MOL_PROPERTY
Pdih
SciTegic.value.DoubleValue
0.416

@<SCITEGIC>MOL_PROPERTY
Idih
SciTegic.value.DoubleValue
0.000

@<SCITEGIC>MOL_PROPERTY
Tether
SciTegic.value.DoubleValue
0.000

@<TRIPOS>MOLECULE
guest-1_confgen4.mol2 : confsearch ligand conformer 224
          17          16           1
SMALL
USER_CHARGES
 
@<TRIPOS>ATOM
       1    N1      20.609643   19.830897   19.423956 N.4        1 MOL1        -0.5891
       2    H1      19.964388   20.560899   19.107111 H          1 MOL1         0.3726
       3    H2      20.372404   18.976477   18.910797 H          1 MOL1         0.3726
       4    H3      21.546922   20.110416   19.117001 H          1 MOL1         0.3726
       5    C1      20.545004   19.628182   20.924651 C.3        1 MOL1         0.0314
       6    H4      20.837614   20.565652   21.405209 H          1 MOL1         0.0999
       7    H5      21.277828   18.862447   21.191965 H          1 MOL1         0.0999
       8    C2      19.148405   19.206575   21.420349 C.3        1 MOL1        -0.1308
       9    H6      18.413863   19.962397   21.112033 H          1 MOL1         0.1025
      10    H7      18.853821   18.265875   20.936414 H          1 MOL1         0.1025
      11    C3      19.085641   19.041192   22.956811 C.3        1 MOL1        -0.1243
      12    H8      18.049683   18.820265   23.250009 H          1 MOL1         0.1025
      13    H9      19.348010   19.991636   23.442610 H          1 MOL1         0.1025
      14    C4      20.008651   17.917634   23.481813 C.3        1 MOL1        -0.2258
      15    H10     19.770951   16.956845   23.006937 H          1 MOL1         0.1036
      16    H11     19.886787   17.794424   24.565776 H          1 MOL1         0.1036
      17    H12     21.065767   18.141960   23.291356 H          1 MOL1         0.1036
@<TRIPOS>BOND
    1     1     2    1
    2     1     3    1
    3     1     4    1
    4     1     5    1
    5     5     6    1
    6     5     7    1
    7     5     8    1
    8     8     9    1
    9     8    10    1
   10     8    11    1
   11    11    12    1
   12    11    13    1
   13    11    14    1
   14    14    15    1
   15    14    16    1
   16    14    17    1
@<TRIPOS>SUBSTRUCTURE
       1 MOL1            1 RESIDUE      1      MOL     
@<SCITEGIC>MOL_PROPERTY
VConf Rank
SciTegic.value.IntegerValue
224

@<SCITEGIC>MOL_PROPERTY
Conf_Id
SciTegic.value.IntegerValue
36

@<SCITEGIC>MOL_PROPERTY
Delta U+W
SciTegic.value.DoubleValue
0.275

@<SCITEGIC>MOL_PROPERTY
U+W
SciTegic.value.DoubleValue
-15.590

@<SCITEGIC>MOL_PROPERTY
Grad RMS
SciTegic.value.DoubleValue
0.000000

@<SCITEGIC>MOL_PROPERTY
U
SciTegic.value.DoubleValue
45.174

@<SCITEGIC>MOL_PROPERTY
W
SciTegic.value.DoubleValue
-60.765

@<SCITEGIC>MOL_PROPERTY
W(PB)
SciTegic.value.DoubleValue
-62.518

@<SCITEGIC>MOL_PROPERTY
W(SA)
SciTegic.value.DoubleValue
1.754

@<SCITEGIC>MOL_PROPERTY
Valence
SciTegic.value.DoubleValue
1.161

@<SCITEGIC>MOL_PROPERTY
Coulomb
SciTegic.value.DoubleValue
43.789

@<SCITEGIC>MOL_PROPERTY
VdW
SciTegic.value.DoubleValue
0.224

@<SCITEGIC>MOL_PROPERTY
VdW6
SciTegic.value.DoubleValue
-2.897

@<SCITEGIC>MOL_PROPERTY
VdW12
SciTegic.value.DoubleValue
3.121

@<SCITEGIC>MOL_PROPERTY
Bond
SciTegic.value.DoubleValue
0.100

@<SCITEGIC>MOL_PROPERTY
Angle
SciTegic.value.DoubleValue
0.500

@<SCITEGIC>MOL_PROPERTY
Pdih
SciTegic.value.DoubleValue
0.561

@<SCITEGIC>MOL_PROPERTY
Idih
SciTegic.value.DoubleValue
0.000

@<SCITEGIC>MOL_PROPERTY
Tether
SciTegic.value.DoubleValue
0.000

@<TRIPOS>MOLECULE
guest-1_confgen4.mol2 : confsearch ligand conformer 225
          17          16           1
SMALL
USER_CHARGES
 
@<TRIPOS>ATOM
       1    N1      19.069337   20.495416   20.949217 N.4        1 MOL1        -0.5891
       2    H1      18.508412   20.022867   21.662593 H          1 MOL1         0.3726
       3    H2      18.684844   20.228518   20.037949 H          1 MOL1         0.3726
       4    H3      18.908948   21.502223   21.056163 H          1 MOL1         0.3726
       5    C1      20.539792   20.142904   21.065521 C.3        1 MOL1         0.0314
       6    H4      20.911004   20.510589   22.025891 H          1 MOL1         0.0999
       7    H5      21.062109   20.684065   20.271879 H          1 MOL1         0.0999
       8    C2      20.843535   18.635883   20.930461 C.3        1 MOL1        -0.1308
       9    H6      20.266412   18.209430   20.099320 H          1 MOL1         0.1025
      10    H7      21.899696   18.531091   20.648700 H          1 MOL1         0.1025
      11    C3      20.611934   17.815007   22.224767 C.3        1 MOL1        -0.1243
      12    H8      21.242653   18.212519   23.032355 H          1 MOL1         0.1025
      13    H9      20.956659   16.786382   22.048453 H          1 MOL1         0.1025
      14    C4      19.140831   17.766983   22.696394 C.3        1 MOL1        -0.2258
      15    H10     18.810553   18.737880   23.083630 H          1 MOL1         0.1036
      16    H11     19.025787   17.039458   23.510414 H          1 MOL1         0.1036
      17    H12     18.470692   17.463501   21.881554 H          1 MOL1         0.1036
@<TRIPOS>BOND
    1     1     2    1
    2     1     3    1
    3     1     4    1
    4     1     5    1
    5     5     6    1
    6     5     7    1
    7     5     8    1
    8     8     9    1
    9     8    10    1
   10     8    11    1
   11    11    12    1
   12    11    13    1
   13    11    14    1
   14    14    15    1
   15    14    16    1
   16    14    17    1
@<TRIPOS>SUBSTRUCTURE
       1 MOL1            1 RESIDUE      1      MOL     
@<SCITEGIC>MOL_PROPERTY
VConf Rank
SciTegic.value.IntegerValue
225

@<SCITEGIC>MOL_PROPERTY
Conf_Id
SciTegic.value.IntegerValue
19

@<SCITEGIC>MOL_PROPERTY
Delta U+W
SciTegic.value.DoubleValue
2.662

@<SCITEGIC>MOL_PROPERTY
U+W
SciTegic.value.DoubleValue
-13.203

@<SCITEGIC>MOL_PROPERTY
Grad RMS
SciTegic.value.DoubleValue
0.000000

@<SCITEGIC>MOL_PROPERTY
U
SciTegic.value.DoubleValue
47.423

@<SCITEGIC>MOL_PROPERTY
W
SciTegic.value.DoubleValue
-60.626

@<SCITEGIC>MOL_PROPERTY
W(PB)
SciTegic.value.DoubleValue
-62.328

@<SCITEGIC>MOL_PROPERTY
W(SA)
SciTegic.value.DoubleValue
1.702

@<SCITEGIC>MOL_PROPERTY
Valence
SciTegic.value.DoubleValue
2.414

@<SCITEGIC>MOL_PROPERTY
Coulomb
SciTegic.value.DoubleValue
44.831

@<SCITEGIC>MOL_PROPERTY
VdW
SciTegic.value.DoubleValue
0.178

@<SCITEGIC>MOL_PROPERTY
VdW6
SciTegic.value.DoubleValue
-3.743

@<SCITEGIC>MOL_PROPERTY
VdW12
SciTegic.value.DoubleValue
3.921

@<SCITEGIC>MOL_PROPERTY
Bond
SciTegic.value.DoubleValue
0.138

@<SCITEGIC>MOL_PROPERTY
Angle
SciTegic.value.DoubleValue
0.941

@<SCITEGIC>MOL_PROPERTY
Pdih
SciTegic.value.DoubleValue
1.335

@<SCITEGIC>MOL_PROPERTY
Idih
SciTegic.value.DoubleValue
0.000

@<SCITEGIC>MOL_PROPERTY
Tether
SciTegic.value.DoubleValue
0.000

@<TRIPOS>MOLECULE
guest-1_confgen4.mol2 : confsearch ligand conformer 226
          17          16           1
SMALL
USER_CHARGES
 
@<TRIPOS>ATOM
       1    N1      21.591387   18.392523   21.316765 N.4        1 MOL1        -0.5891
       2    H1      22.163805   17.563657   21.126654 H          1 MOL1         0.3726
       3    H2      22.236202   19.146932   21.570853 H          1 MOL1         0.3726
       4    H3      21.146597   18.660938   20.435312 H          1 MOL1         0.3726
       5    C1      20.568929   18.134155   22.406657 C.3        1 MOL1         0.0314
       6    H4      21.124234   17.857421   23.306986 H          1 MOL1         0.0999
       7    H5      19.954912   17.278813   22.112253 H          1 MOL1         0.0999
       8    C2      19.663128   19.342097   22.726049 C.3        1 MOL1        -0.1308
       9    H6      19.250939   19.194564   23.733115 H          1 MOL1         0.1025
      10    H7      20.264687   20.259228   22.778282 H          1 MOL1         0.1025
      11    C3      18.475494   19.531264   21.748069 C.3        1 MOL1        -0.1243
      12    H8      17.842444   20.346344   22.126066 H          1 MOL1         0.1025
      13    H9      17.845806   18.630434   21.752738 H          1 MOL1         0.1025
      14    C4      18.889671   19.862577   20.296322 C.3        1 MOL1        -0.2258
      15    H10     19.596633   20.701853   20.265149 H          1 MOL1         0.1036
      16    H11     18.009481   20.146647   19.704945 H          1 MOL1         0.1036
      17    H12     19.344862   18.997400   19.800388 H          1 MOL1         0.1036
@<TRIPOS>BOND
    1     1     2    1
    2     1     3    1
    3     1     4    1
    4     1     5    1
    5     5     6    1
    6     5     7    1
    7     5     8    1
    8     8     9    1
    9     8    10    1
   10     8    11    1
   11    11    12    1
   12    11    13    1
   13    11    14    1
   14    14    15    1
   15    14    16    1
   16    14    17    1
@<TRIPOS>SUBSTRUCTURE
       1 MOL1            1 RESIDUE      1      MOL     
@<SCITEGIC>MOL_PROPERTY
VConf Rank
SciTegic.value.IntegerValue
226

@<SCITEGIC>MOL_PROPERTY
Conf_Id
SciTegic.value.IntegerValue
44

@<SCITEGIC>MOL_PROPERTY
Delta U+W
SciTegic.value.DoubleValue
2.712

@<SCITEGIC>MOL_PROPERTY
U+W
SciTegic.value.DoubleValue
-13.153

@<SCITEGIC>MOL_PROPERTY
Grad RMS
SciTegic.value.DoubleValue
0.000000

@<SCITEGIC>MOL_PROPERTY
U
SciTegic.value.DoubleValue
47.423

@<SCITEGIC>MOL_PROPERTY
W
SciTegic.value.DoubleValue
-60.576

@<SCITEGIC>MOL_PROPERTY
W(PB)
SciTegic.value.DoubleValue
-62.262

@<SCITEGIC>MOL_PROPERTY
W(SA)
SciTegic.value.DoubleValue
1.687

@<SCITEGIC>MOL_PROPERTY
Valence
SciTegic.value.DoubleValue
2.414

@<SCITEGIC>MOL_PROPERTY
Coulomb
SciTegic.value.DoubleValue
44.831

@<SCITEGIC>MOL_PROPERTY
VdW
SciTegic.value.DoubleValue
0.178

@<SCITEGIC>MOL_PROPERTY
VdW6
SciTegic.value.DoubleValue
-3.743

@<SCITEGIC>MOL_PROPERTY
VdW12
SciTegic.value.DoubleValue
3.922

@<SCITEGIC>MOL_PROPERTY
Bond
SciTegic.value.DoubleValue
0.138

@<SCITEGIC>MOL_PROPERTY
Angle
SciTegic.value.DoubleValue
0.941

@<SCITEGIC>MOL_PROPERTY
Pdih
SciTegic.value.DoubleValue
1.335

@<SCITEGIC>MOL_PROPERTY
Idih
SciTegic.value.DoubleValue
0.000

@<SCITEGIC>MOL_PROPERTY
Tether
SciTegic.value.DoubleValue
0.000

@<TRIPOS>MOLECULE
guest-1_confgen4.mol2 : confsearch ligand conformer 227
          17          16           1
SMALL
USER_CHARGES
 
@<TRIPOS>ATOM
       1    N1      20.140137   18.856122   23.564713 N.4        1 MOL1        -0.5891
       2    H1      21.017317   18.551190   23.133414 H          1 MOL1         0.3726
       3    H2      19.669973   18.018170   23.919904 H          1 MOL1         0.3726
       4    H3      20.389539   19.425485   24.379754 H          1 MOL1         0.3726
       5    C1      19.269703   19.621721   22.586930 C.3        1 MOL1         0.0314
       6    H4      19.816905   20.513994   22.271934 H          1 MOL1         0.0999
       7    H5      18.373560   19.946548   23.122610 H          1 MOL1         0.0999
       8    C2      18.854907   18.801398   21.348005 C.3        1 MOL1        -0.1308
       9    H6      18.271336   17.929471   21.671947 H          1 MOL1         0.1025
      10    H7      18.178697   19.410614   20.733675 H          1 MOL1         0.1025
      11    C3      20.046039   18.328301   20.477983 C.3        1 MOL1        -0.1243
      12    H8      19.656536   17.743725   19.632724 H          1 MOL1         0.1025
      13    H9      20.684085   17.642718   21.052027 H          1 MOL1         0.1025
      14    C4      20.897602   19.496591   19.930498 C.3        1 MOL1        -0.2258
      15    H10     20.281402   20.196352   19.351103 H          1 MOL1         0.1036
      16    H11     21.688071   19.119721   19.268610 H          1 MOL1         0.1036
      17    H12     21.382832   20.056642   20.739721 H          1 MOL1         0.1036
@<TRIPOS>BOND
    1     1     2    1
    2     1     3    1
    3     1     4    1
    4     1     5    1
    5     5     6    1
    6     5     7    1
    7     5     8    1
    8     8     9    1
    9     8    10    1
   10     8    11    1
   11    11    12    1
   12    11    13    1
   13    11    14    1
   14    14    15    1
   15    14    16    1
   16    14    17    1
@<TRIPOS>SUBSTRUCTURE
       1 MOL1            1 RESIDUE      1      MOL     
@<SCITEGIC>MOL_PROPERTY
VConf Rank
SciTegic.value.IntegerValue
227

@<SCITEGIC>MOL_PROPERTY
Conf_Id
SciTegic.value.IntegerValue
1

@<SCITEGIC>MOL_PROPERTY
Delta U+W
SciTegic.value.DoubleValue
0.685

@<SCITEGIC>MOL_PROPERTY
U+W
SciTegic.value.DoubleValue
-15.179

@<SCITEGIC>MOL_PROPERTY
Grad RMS
SciTegic.value.DoubleValue
0.000000

@<SCITEGIC>MOL_PROPERTY
U
SciTegic.value.DoubleValue
45.697

@<SCITEGIC>MOL_PROPERTY
W
SciTegic.value.DoubleValue
-60.876

@<SCITEGIC>MOL_PROPERTY
W(PB)
SciTegic.value.DoubleValue
-62.586

@<SCITEGIC>MOL_PROPERTY
W(SA)
SciTegic.value.DoubleValue
1.710

@<SCITEGIC>MOL_PROPERTY
Valence
SciTegic.value.DoubleValue
1.263

@<SCITEGIC>MOL_PROPERTY
Coulomb
SciTegic.value.DoubleValue
44.179

@<SCITEGIC>MOL_PROPERTY
VdW
SciTegic.value.DoubleValue
0.255

@<SCITEGIC>MOL_PROPERTY
VdW6
SciTegic.value.DoubleValue
-3.552

@<SCITEGIC>MOL_PROPERTY
VdW12
SciTegic.value.DoubleValue
3.807

@<SCITEGIC>MOL_PROPERTY
Bond
SciTegic.value.DoubleValue
0.125

@<SCITEGIC>MOL_PROPERTY
Angle
SciTegic.value.DoubleValue
0.616

@<SCITEGIC>MOL_PROPERTY
Pdih
SciTegic.value.DoubleValue
0.521

@<SCITEGIC>MOL_PROPERTY
Idih
SciTegic.value.DoubleValue
0.000

@<SCITEGIC>MOL_PROPERTY
Tether
SciTegic.value.DoubleValue
0.000

@<TRIPOS>MOLECULE
guest-1_confgen4.mol2 : confsearch ligand conformer 228
          17          16           1
SMALL
USER_CHARGES
 
@<TRIPOS>ATOM
       1    N1      21.574074   18.135943   20.944323 N.4        1 MOL1        -0.5891
       2    H1      22.365202   18.297385   21.574744 H          1 MOL1         0.3726
       3    H2      21.451772   18.986835   20.388019 H          1 MOL1         0.3726
       4    H3      21.856264   17.393117   20.296830 H          1 MOL1         0.3726
       5    C1      20.311394   17.773899   21.702228 C.3        1 MOL1         0.0314
       6    H4      20.501858   16.841298   22.240296 H          1 MOL1         0.0999
       7    H5      19.519263   17.587091   20.972546 H          1 MOL1         0.0999
       8    C2      19.853260   18.855879   22.701904 C.3        1 MOL1        -0.1308
       9    H6      18.976115   18.482032   23.246568 H          1 MOL1         0.1025
      10    H7      20.638604   19.007092   23.454313 H          1 MOL1         0.1025
      11    C3      19.503423   20.213923   22.043961 C.3        1 MOL1        -0.1243
      12    H8      20.396317   20.645998   21.572045 H          1 MOL1         0.1025
      13    H9      19.203795   20.921123   22.830087 H          1 MOL1         0.1025
      14    C4      18.364759   20.107342   21.003825 C.3        1 MOL1        -0.2258
      15    H10     18.106439   21.099929   20.612662 H          1 MOL1         0.1036
      16    H11     17.459322   19.678469   21.452512 H          1 MOL1         0.1036
      17    H12     18.654128   19.480686   20.150879 H          1 MOL1         0.1036
@<TRIPOS>BOND
    1     1     2    1
    2     1     3    1
    3     1     4    1
    4     1     5    1
    5     5     6    1
    6     5     7    1
    7     5     8    1
    8     8     9    1
    9     8    10    1
   10     8    11    1
   11    11    12    1
   12    11    13    1
   13    11    14    1
   14    14    15    1
   15    14    16    1
   16    14    17    1
@<TRIPOS>SUBSTRUCTURE
       1 MOL1            1 RESIDUE      1      MOL     
@<SCITEGIC>MOL_PROPERTY
VConf Rank
SciTegic.value.IntegerValue
228

@<SCITEGIC>MOL_PROPERTY
Conf_Id
SciTegic.value.IntegerValue
43

@<SCITEGIC>MOL_PROPERTY
Delta U+W
SciTegic.value.DoubleValue
0.642

@<SCITEGIC>MOL_PROPERTY
U+W
SciTegic.value.DoubleValue
-15.222

@<SCITEGIC>MOL_PROPERTY
Grad RMS
SciTegic.value.DoubleValue
0.000000

@<SCITEGIC>MOL_PROPERTY
U
SciTegic.value.DoubleValue
45.697

@<SCITEGIC>MOL_PROPERTY
W
SciTegic.value.DoubleValue
-60.919

@<SCITEGIC>MOL_PROPERTY
W(PB)
SciTegic.value.DoubleValue
-62.631

@<SCITEGIC>MOL_PROPERTY
W(SA)
SciTegic.value.DoubleValue
1.712

@<SCITEGIC>MOL_PROPERTY
Valence
SciTegic.value.DoubleValue
1.262

@<SCITEGIC>MOL_PROPERTY
Coulomb
SciTegic.value.DoubleValue
44.179

@<SCITEGIC>MOL_PROPERTY
VdW
SciTegic.value.DoubleValue
0.255

@<SCITEGIC>MOL_PROPERTY
VdW6
SciTegic.value.DoubleValue
-3.552

@<SCITEGIC>MOL_PROPERTY
VdW12
SciTegic.value.DoubleValue
3.807

@<SCITEGIC>MOL_PROPERTY
Bond
SciTegic.value.DoubleValue
0.125

@<SCITEGIC>MOL_PROPERTY
Angle
SciTegic.value.DoubleValue
0.616

@<SCITEGIC>MOL_PROPERTY
Pdih
SciTegic.value.DoubleValue
0.521

@<SCITEGIC>MOL_PROPERTY
Idih
SciTegic.value.DoubleValue
0.000

@<SCITEGIC>MOL_PROPERTY
Tether
SciTegic.value.DoubleValue
0.000

@<TRIPOS>MOLECULE
guest-1_confgen4.mol2 : confsearch ligand conformer 229
          17          16           1
SMALL
USER_CHARGES
 
@<TRIPOS>ATOM
       1    N1      20.718757   20.131510   23.807179 N.4        1 MOL1        -0.5891
       2    H1      19.790026   20.260281   24.220183 H          1 MOL1         0.3726
       3    H2      21.005147   21.037045   23.422881 H          1 MOL1         0.3726
       4    H3      21.359675   19.921270   24.579144 H          1 MOL1         0.3726
       5    C1      20.726245   19.040178   22.755372 C.3        1 MOL1         0.0314
       6    H4      20.442411   18.102135   23.240178 H          1 MOL1         0.0999
       7    H5      21.749075   18.937374   22.382848 H          1 MOL1         0.0999
       8    C2      19.773500   19.324007   21.579796 C.3        1 MOL1        -0.1308
       9    H6      18.749827   19.441977   21.959490 H          1 MOL1         0.1025
      10    H7      20.052083   20.274255   21.105022 H          1 MOL1         0.1025
      11    C3      19.811542   18.189355   20.532591 C.3        1 MOL1        -0.1243
      12    H8      19.535990   17.237309   21.007991 H          1 MOL1         0.1025
      13    H9      20.836629   18.068615   20.154511 H          1 MOL1         0.1025
      14    C4      18.858161   18.467129   19.350279 C.3        1 MOL1        -0.2258
      15    H10     18.899871   17.650194   18.618209 H          1 MOL1         0.1036
      16    H11     19.130184   19.396411   18.832935 H          1 MOL1         0.1036
      17    H12     17.819284   18.558602   19.693172 H          1 MOL1         0.1036
@<TRIPOS>BOND
    1     1     2    1
    2     1     3    1
    3     1     4    1
    4     1     5    1
    5     5     6    1
    6     5     7    1
    7     5     8    1
    8     8     9    1
    9     8    10    1
   10     8    11    1
   11    11    12    1
   12    11    13    1
   13    11    14    1
   14    14    15    1
   15    14    16    1
   16    14    17    1
@<TRIPOS>SUBSTRUCTURE
       1 MOL1            1 RESIDUE      1      MOL     
@<SCITEGIC>MOL_PROPERTY
VConf Rank
SciTegic.value.IntegerValue
229

@<SCITEGIC>MOL_PROPERTY
Conf_Id
SciTegic.value.IntegerValue
7

@<SCITEGIC>MOL_PROPERTY
Delta U+W
SciTegic.value.DoubleValue
0.000

@<SCITEGIC>MOL_PROPERTY
U+W
SciTegic.value.DoubleValue
-15.865

@<SCITEGIC>MOL_PROPERTY
Grad RMS
SciTegic.value.DoubleValue
0.000000

@<SCITEGIC>MOL_PROPERTY
U
SciTegic.value.DoubleValue
44.664

@<SCITEGIC>MOL_PROPERTY
W
SciTegic.value.DoubleValue
-60.529

@<SCITEGIC>MOL_PROPERTY
W(PB)
SciTegic.value.DoubleValue
-62.309

@<SCITEGIC>MOL_PROPERTY
W(SA)
SciTegic.value.DoubleValue
1.780

@<SCITEGIC>MOL_PROPERTY
Valence
SciTegic.value.DoubleValue
0.872

@<SCITEGIC>MOL_PROPERTY
Coulomb
SciTegic.value.DoubleValue
43.648

@<SCITEGIC>MOL_PROPERTY
VdW
SciTegic.value.DoubleValue
0.144

@<SCITEGIC>MOL_PROPERTY
VdW6
SciTegic.value.DoubleValue
-2.370

@<SCITEGIC>MOL_PROPERTY
VdW12
SciTegic.value.DoubleValue
2.515

@<SCITEGIC>MOL_PROPERTY
Bond
SciTegic.value.DoubleValue
0.080

@<SCITEGIC>MOL_PROPERTY
Angle
SciTegic.value.DoubleValue
0.376

@<SCITEGIC>MOL_PROPERTY
Pdih
SciTegic.value.DoubleValue
0.416

@<SCITEGIC>MOL_PROPERTY
Idih
SciTegic.value.DoubleValue
0.000

@<SCITEGIC>MOL_PROPERTY
Tether
SciTegic.value.DoubleValue
0.000

@<TRIPOS>MOLECULE
guest-1_confgen4.mol2 : confsearch ligand conformer 230
          17          16           1
SMALL
USER_CHARGES
 
@<TRIPOS>ATOM
       1    N1      18.353183   17.270823   21.739520 N.4        1 MOL1        -0.5891
       2    H1      18.345471   16.905656   22.696725 H          1 MOL1         0.3726
       3    H2      18.872983   16.599727   21.165860 H          1 MOL1         0.3726
       4    H3      17.383102   17.254847   21.408564 H          1 MOL1         0.3726
       5    C1      18.950641   18.661930   21.667261 C.3        1 MOL1         0.0314
       6    H4      18.331615   19.327560   22.274840 H          1 MOL1         0.0999
       7    H5      18.896795   18.996988   20.628187 H          1 MOL1         0.0999
       8    C2      20.410060   18.721686   22.157652 C.3        1 MOL1        -0.1308
       9    H6      20.459035   18.345569   23.188193 H          1 MOL1         0.1025
      10    H7      21.031467   18.051870   21.548482 H          1 MOL1         0.1025
      11    C3      20.995204   20.152724   22.115896 C.3        1 MOL1        -0.1243
      12    H8      22.004201   20.138626   22.551450 H          1 MOL1         0.1025
      13    H9      20.393657   20.817488   22.751830 H          1 MOL1         0.1025
      14    C4      21.071923   20.732642   20.684894 C.3        1 MOL1        -0.2258
      15    H10     21.663457   20.083160   20.026574 H          1 MOL1         0.1036
      16    H11     21.548293   21.721565   20.695380 H          1 MOL1         0.1036
      17    H12     20.074292   20.850911   20.243493 H          1 MOL1         0.1036
@<TRIPOS>BOND
    1     1     2    1
    2     1     3    1
    3     1     4    1
    4     1     5    1
    5     5     6    1
    6     5     7    1
    7     5     8    1
    8     8     9    1
    9     8    10    1
   10     8    11    1
   11    11    12    1
   12    11    13    1
   13    11    14    1
   14    14    15    1
   15    14    16    1
   16    14    17    1
@<TRIPOS>SUBSTRUCTURE
       1 MOL1            1 RESIDUE      1      MOL     
@<SCITEGIC>MOL_PROPERTY
VConf Rank
SciTegic.value.IntegerValue
230

@<SCITEGIC>MOL_PROPERTY
Conf_Id
SciTegic.value.IntegerValue
36

@<SCITEGIC>MOL_PROPERTY
Delta U+W
SciTegic.value.DoubleValue
0.275

@<SCITEGIC>MOL_PROPERTY
U+W
SciTegic.value.DoubleValue
-15.590

@<SCITEGIC>MOL_PROPERTY
Grad RMS
SciTegic.value.DoubleValue
0.000000

@<SCITEGIC>MOL_PROPERTY
U
SciTegic.value.DoubleValue
45.174

@<SCITEGIC>MOL_PROPERTY
W
SciTegic.value.DoubleValue
-60.765

@<SCITEGIC>MOL_PROPERTY
W(PB)
SciTegic.value.DoubleValue
-62.518

@<SCITEGIC>MOL_PROPERTY
W(SA)
SciTegic.value.DoubleValue
1.754

@<SCITEGIC>MOL_PROPERTY
Valence
SciTegic.value.DoubleValue
1.161

@<SCITEGIC>MOL_PROPERTY
Coulomb
SciTegic.value.DoubleValue
43.789

@<SCITEGIC>MOL_PROPERTY
VdW
SciTegic.value.DoubleValue
0.224

@<SCITEGIC>MOL_PROPERTY
VdW6
SciTegic.value.DoubleValue
-2.897

@<SCITEGIC>MOL_PROPERTY
VdW12
SciTegic.value.DoubleValue
3.121

@<SCITEGIC>MOL_PROPERTY
Bond
SciTegic.value.DoubleValue
0.100

@<SCITEGIC>MOL_PROPERTY
Angle
SciTegic.value.DoubleValue
0.500

@<SCITEGIC>MOL_PROPERTY
Pdih
SciTegic.value.DoubleValue
0.561

@<SCITEGIC>MOL_PROPERTY
Idih
SciTegic.value.DoubleValue
0.000

@<SCITEGIC>MOL_PROPERTY
Tether
SciTegic.value.DoubleValue
0.000

@<TRIPOS>MOLECULE
guest-1_confgen4.mol2 : confsearch ligand conformer 231
          17          16           1
SMALL
USER_CHARGES
 
@<TRIPOS>ATOM
       1    N1      20.989684   20.276327   22.431199 N.4        1 MOL1        -0.5891
       2    H1      20.155926   20.692563   22.008778 H          1 MOL1         0.3726
       3    H2      21.771844   20.456326   21.794562 H          1 MOL1         0.3726
       4    H3      21.183012   20.795381   23.293770 H          1 MOL1         0.3726
       5    C1      20.806538   18.793926   22.693827 C.3        1 MOL1         0.0314
       6    H4      20.007138   18.666756   23.428735 H          1 MOL1         0.0999
       7    H5      21.736441   18.430926   23.139976 H          1 MOL1         0.0999
       8    C2      20.494685   17.960061   21.433259 C.3        1 MOL1        -0.1308
       9    H6      21.148708   18.269175   20.607165 H          1 MOL1         0.1025
      10    H7      20.755932   16.915641   21.649554 H          1 MOL1         0.1025
      11    C3      19.010206   17.997695   20.988726 C.3        1 MOL1        -0.1243
      12    H8      18.371261   17.626295   21.802257 H          1 MOL1         0.1025
      13    H9      18.880703   17.293279   20.155050 H          1 MOL1         0.1025
      14    C4      18.513139   19.390116   20.538203 C.3        1 MOL1        -0.2258
      15    H10     18.424465   20.079380   21.385981 H          1 MOL1         0.1036
      16    H11     17.517459   19.309711   20.082885 H          1 MOL1         0.1036
      17    H12     19.186057   19.831161   19.791333 H          1 MOL1         0.1036
@<TRIPOS>BOND
    1     1     2    1
    2     1     3    1
    3     1     4    1
    4     1     5    1
    5     5     6    1
    6     5     7    1
    7     5     8    1
    8     8     9    1
    9     8    10    1
   10     8    11    1
   11    11    12    1
   12    11    13    1
   13    11    14    1
   14    14    15    1
   15    14    16    1
   16    14    17    1
@<TRIPOS>SUBSTRUCTURE
       1 MOL1            1 RESIDUE      1      MOL     
@<SCITEGIC>MOL_PROPERTY
VConf Rank
SciTegic.value.IntegerValue
231

@<SCITEGIC>MOL_PROPERTY
Conf_Id
SciTegic.value.IntegerValue
19

@<SCITEGIC>MOL_PROPERTY
Delta U+W
SciTegic.value.DoubleValue
2.662

@<SCITEGIC>MOL_PROPERTY
U+W
SciTegic.value.DoubleValue
-13.203

@<SCITEGIC>MOL_PROPERTY
Grad RMS
SciTegic.value.DoubleValue
0.000000

@<SCITEGIC>MOL_PROPERTY
U
SciTegic.value.DoubleValue
47.423

@<SCITEGIC>MOL_PROPERTY
W
SciTegic.value.DoubleValue
-60.626

@<SCITEGIC>MOL_PROPERTY
W(PB)
SciTegic.value.DoubleValue
-62.328

@<SCITEGIC>MOL_PROPERTY
W(SA)
SciTegic.value.DoubleValue
1.702

@<SCITEGIC>MOL_PROPERTY
Valence
SciTegic.value.DoubleValue
2.414

@<SCITEGIC>MOL_PROPERTY
Coulomb
SciTegic.value.DoubleValue
44.831

@<SCITEGIC>MOL_PROPERTY
VdW
SciTegic.value.DoubleValue
0.178

@<SCITEGIC>MOL_PROPERTY
VdW6
SciTegic.value.DoubleValue
-3.743

@<SCITEGIC>MOL_PROPERTY
VdW12
SciTegic.value.DoubleValue
3.921

@<SCITEGIC>MOL_PROPERTY
Bond
SciTegic.value.DoubleValue
0.138

@<SCITEGIC>MOL_PROPERTY
Angle
SciTegic.value.DoubleValue
0.941

@<SCITEGIC>MOL_PROPERTY
Pdih
SciTegic.value.DoubleValue
1.335

@<SCITEGIC>MOL_PROPERTY
Idih
SciTegic.value.DoubleValue
0.000

@<SCITEGIC>MOL_PROPERTY
Tether
SciTegic.value.DoubleValue
0.000

@<TRIPOS>MOLECULE
guest-1_confgen4.mol2 : confsearch ligand conformer 232
          17          16           1
SMALL
USER_CHARGES
 
@<TRIPOS>ATOM
       1    N1      21.283994   20.025318   22.346445 N.4        1 MOL1        -0.5891
       2    H1      21.683563   20.952142   22.525794 H          1 MOL1         0.3726
       3    H2      22.013333   19.339997   22.565260 H          1 MOL1         0.3726
       4    H3      20.528190   19.886488   23.021968 H          1 MOL1         0.3726
       5    C1      20.793286   19.889325   20.917896 C.3        1 MOL1         0.0314
       6    H4      21.656919   20.048811   20.266560 H          1 MOL1         0.0999
       7    H5      20.070135   20.685299   20.720968 H          1 MOL1         0.0999
       8    C2      20.163455   18.518856   20.591189 C.3        1 MOL1        -0.1308
       9    H6      20.198618   18.385302   19.501798 H          1 MOL1         0.1025
      10    H7      20.778082   17.712802   21.013375 H          1 MOL1         0.1025
      11    C3      18.688599   18.365244   21.042749 C.3        1 MOL1        -0.1243
      12    H8      18.311069   17.402686   20.669997 H          1 MOL1         0.1025
      13    H9      18.072806   19.139236   20.563419 H          1 MOL1         0.1025
      14    C4      18.480309   18.416133   22.573404 C.3        1 MOL1        -0.2258
      15    H10     19.152237   17.718833   23.090547 H          1 MOL1         0.1036
      16    H11     17.449794   18.135027   22.826728 H          1 MOL1         0.1036
      17    H12     18.644822   19.425346   22.968506 H          1 MOL1         0.1036
@<TRIPOS>BOND
    1     1     2    1
    2     1     3    1
    3     1     4    1
    4     1     5    1
    5     5     6    1
    6     5     7    1
    7     5     8    1
    8     8     9    1
    9     8    10    1
   10     8    11    1
   11    11    12    1
   12    11    13    1
   13    11    14    1
   14    14    15    1
   15    14    16    1
   16    14    17    1
@<TRIPOS>SUBSTRUCTURE
       1 MOL1            1 RESIDUE      1      MOL     
@<SCITEGIC>MOL_PROPERTY
VConf Rank
SciTegic.value.IntegerValue
232

@<SCITEGIC>MOL_PROPERTY
Conf_Id
SciTegic.value.IntegerValue
44

@<SCITEGIC>MOL_PROPERTY
Delta U+W
SciTegic.value.DoubleValue
2.712

@<SCITEGIC>MOL_PROPERTY
U+W
SciTegic.value.DoubleValue
-13.153

@<SCITEGIC>MOL_PROPERTY
Grad RMS
SciTegic.value.DoubleValue
0.000000

@<SCITEGIC>MOL_PROPERTY
U
SciTegic.value.DoubleValue
47.423

@<SCITEGIC>MOL_PROPERTY
W
SciTegic.value.DoubleValue
-60.576

@<SCITEGIC>MOL_PROPERTY
W(PB)
SciTegic.value.DoubleValue
-62.262

@<SCITEGIC>MOL_PROPERTY
W(SA)
SciTegic.value.DoubleValue
1.687

@<SCITEGIC>MOL_PROPERTY
Valence
SciTegic.value.DoubleValue
2.414

@<SCITEGIC>MOL_PROPERTY
Coulomb
SciTegic.value.DoubleValue
44.831

@<SCITEGIC>MOL_PROPERTY
VdW
SciTegic.value.DoubleValue
0.178

@<SCITEGIC>MOL_PROPERTY
VdW6
SciTegic.value.DoubleValue
-3.743

@<SCITEGIC>MOL_PROPERTY
VdW12
SciTegic.value.DoubleValue
3.922

@<SCITEGIC>MOL_PROPERTY
Bond
SciTegic.value.DoubleValue
0.138

@<SCITEGIC>MOL_PROPERTY
Angle
SciTegic.value.DoubleValue
0.941

@<SCITEGIC>MOL_PROPERTY
Pdih
SciTegic.value.DoubleValue
1.335

@<SCITEGIC>MOL_PROPERTY
Idih
SciTegic.value.DoubleValue
0.000

@<SCITEGIC>MOL_PROPERTY
Tether
SciTegic.value.DoubleValue
0.000

@<TRIPOS>MOLECULE
guest-1_confgen4.mol2 : confsearch ligand conformer 233
          17          16           1
SMALL
USER_CHARGES
 
@<TRIPOS>ATOM
       1    N1      18.278854   20.128878   21.860280 N.4        1 MOL1        -0.5891
       2    H1      18.203281   19.318074   22.481031 H          1 MOL1         0.3726
       3    H2      17.609348   19.989771   21.097528 H          1 MOL1         0.3726
       4    H3      17.958393   20.944132   22.392572 H          1 MOL1         0.3726
       5    C1      19.693381   20.312131   21.345121 C.3        1 MOL1         0.0314
       6    H4      20.347669   20.484430   22.203623 H          1 MOL1         0.0999
       7    H5      19.707496   21.211668   20.723693 H          1 MOL1         0.0999
       8    C2      20.216917   19.115760   20.523826 C.3        1 MOL1        -0.1308
       9    H6      19.577211   18.976243   19.642316 H          1 MOL1         0.1025
      10    H7      21.215767   19.363094   20.140513 H          1 MOL1         0.1025
      11    C3      20.291181   17.789176   21.320202 C.3        1 MOL1        -0.1243
      12    H8      20.658654   16.996441   20.653539 H          1 MOL1         0.1025
      13    H9      19.284676   17.479643   21.632917 H          1 MOL1         0.1025
      14    C4      21.216628   17.875512   22.555472 C.3        1 MOL1        -0.2258
      15    H10     22.230624   18.182642   22.268154 H          1 MOL1         0.1036
      16    H11     21.290534   16.898422   23.050244 H          1 MOL1         0.1036
      17    H12     20.838028   18.592745   23.294518 H          1 MOL1         0.1036
@<TRIPOS>BOND
    1     1     2    1
    2     1     3    1
    3     1     4    1
    4     1     5    1
    5     5     6    1
    6     5     7    1
    7     5     8    1
    8     8     9    1
    9     8    10    1
   10     8    11    1
   11    11    12    1
   12    11    13    1
   13    11    14    1
   14    14    15    1
   15    14    16    1
   16    14    17    1
@<TRIPOS>SUBSTRUCTURE
       1 MOL1            1 RESIDUE      1      MOL     
@<SCITEGIC>MOL_PROPERTY
VConf Rank
SciTegic.value.IntegerValue
233

@<SCITEGIC>MOL_PROPERTY
Conf_Id
SciTegic.value.IntegerValue
1

@<SCITEGIC>MOL_PROPERTY
Delta U+W
SciTegic.value.DoubleValue
0.685

@<SCITEGIC>MOL_PROPERTY
U+W
SciTegic.value.DoubleValue
-15.179

@<SCITEGIC>MOL_PROPERTY
Grad RMS
SciTegic.value.DoubleValue
0.000000

@<SCITEGIC>MOL_PROPERTY
U
SciTegic.value.DoubleValue
45.697

@<SCITEGIC>MOL_PROPERTY
W
SciTegic.value.DoubleValue
-60.876

@<SCITEGIC>MOL_PROPERTY
W(PB)
SciTegic.value.DoubleValue
-62.586

@<SCITEGIC>MOL_PROPERTY
W(SA)
SciTegic.value.DoubleValue
1.710

@<SCITEGIC>MOL_PROPERTY
Valence
SciTegic.value.DoubleValue
1.263

@<SCITEGIC>MOL_PROPERTY
Coulomb
SciTegic.value.DoubleValue
44.179

@<SCITEGIC>MOL_PROPERTY
VdW
SciTegic.value.DoubleValue
0.255

@<SCITEGIC>MOL_PROPERTY
VdW6
SciTegic.value.DoubleValue
-3.552

@<SCITEGIC>MOL_PROPERTY
VdW12
SciTegic.value.DoubleValue
3.807

@<SCITEGIC>MOL_PROPERTY
Bond
SciTegic.value.DoubleValue
0.125

@<SCITEGIC>MOL_PROPERTY
Angle
SciTegic.value.DoubleValue
0.616

@<SCITEGIC>MOL_PROPERTY
Pdih
SciTegic.value.DoubleValue
0.521

@<SCITEGIC>MOL_PROPERTY
Idih
SciTegic.value.DoubleValue
0.000

@<SCITEGIC>MOL_PROPERTY
Tether
SciTegic.value.DoubleValue
0.000

@<TRIPOS>MOLECULE
guest-1_confgen4.mol2 : confsearch ligand conformer 234
          17          16           1
SMALL
USER_CHARGES
 
@<TRIPOS>ATOM
       1    N1      19.460831   18.519308   19.736841 N.4        1 MOL1        -0.5891
       2    H1      19.424531   17.501820   19.623806 H          1 MOL1         0.3726
       3    H2      20.448680   18.788759   19.737463 H          1 MOL1         0.3726
       4    H3      19.039914   18.927363   18.896016 H          1 MOL1         0.3726
       5    C1      18.753694   18.973947   20.999030 C.3        1 MOL1         0.0314
       6    H4      17.701978   18.687524   20.913039 H          1 MOL1         0.0999
       7    H5      18.804146   20.065001   21.042172 H          1 MOL1         0.0999
       8    C2      19.342153   18.374365   22.292915 C.3        1 MOL1        -0.1308
       9    H6      18.731130   18.705578   23.143063 H          1 MOL1         0.1025
      10    H7      19.249775   17.280754   22.257851 H          1 MOL1         0.1025
      11    C3      20.821122   18.757345   22.548913 C.3        1 MOL1        -0.1243
      12    H8      21.459374   18.352724   21.751686 H          1 MOL1         0.1025
      13    H9      21.155423   18.275827   23.478584 H          1 MOL1         0.1025
      14    C4      21.039783   20.283142   22.666938 C.3        1 MOL1        -0.2258
      15    H10     22.086562   20.504226   22.912585 H          1 MOL1         0.1036
      16    H11     20.412442   20.711540   23.459393 H          1 MOL1         0.1036
      17    H12     20.804449   20.798818   21.727446 H          1 MOL1         0.1036
@<TRIPOS>BOND
    1     1     2    1
    2     1     3    1
    3     1     4    1
    4     1     5    1
    5     5     6    1
    6     5     7    1
    7     5     8    1
    8     8     9    1
    9     8    10    1
   10     8    11    1
   11    11    12    1
   12    11    13    1
   13    11    14    1
   14    14    15    1
   15    14    16    1
   16    14    17    1
@<TRIPOS>SUBSTRUCTURE
       1 MOL1            1 RESIDUE      1      MOL     
@<SCITEGIC>MOL_PROPERTY
VConf Rank
SciTegic.value.IntegerValue
234

@<SCITEGIC>MOL_PROPERTY
Conf_Id
SciTegic.value.IntegerValue
43

@<SCITEGIC>MOL_PROPERTY
Delta U+W
SciTegic.value.DoubleValue
0.642

@<SCITEGIC>MOL_PROPERTY
U+W
SciTegic.value.DoubleValue
-15.222

@<SCITEGIC>MOL_PROPERTY
Grad RMS
SciTegic.value.DoubleValue
0.000000

@<SCITEGIC>MOL_PROPERTY
U
SciTegic.value.DoubleValue
45.697

@<SCITEGIC>MOL_PROPERTY
W
SciTegic.value.DoubleValue
-60.919

@<SCITEGIC>MOL_PROPERTY
W(PB)
SciTegic.value.DoubleValue
-62.631

@<SCITEGIC>MOL_PROPERTY
W(SA)
SciTegic.value.DoubleValue
1.712

@<SCITEGIC>MOL_PROPERTY
Valence
SciTegic.value.DoubleValue
1.262

@<SCITEGIC>MOL_PROPERTY
Coulomb
SciTegic.value.DoubleValue
44.179

@<SCITEGIC>MOL_PROPERTY
VdW
SciTegic.value.DoubleValue
0.255

@<SCITEGIC>MOL_PROPERTY
VdW6
SciTegic.value.DoubleValue
-3.552

@<SCITEGIC>MOL_PROPERTY
VdW12
SciTegic.value.DoubleValue
3.807

@<SCITEGIC>MOL_PROPERTY
Bond
SciTegic.value.DoubleValue
0.125

@<SCITEGIC>MOL_PROPERTY
Angle
SciTegic.value.DoubleValue
0.616

@<SCITEGIC>MOL_PROPERTY
Pdih
SciTegic.value.DoubleValue
0.521

@<SCITEGIC>MOL_PROPERTY
Idih
SciTegic.value.DoubleValue
0.000

@<SCITEGIC>MOL_PROPERTY
Tether
SciTegic.value.DoubleValue
0.000

@<TRIPOS>MOLECULE
guest-1_confgen4.mol2 : confsearch ligand conformer 235
          17          16           1
SMALL
USER_CHARGES
 
@<TRIPOS>ATOM
       1    N1      21.951355   18.438762   23.092679 N.4        1 MOL1        -0.5891
       2    H1      21.425766   17.937747   23.815477 H          1 MOL1         0.3726
       3    H2      22.143068   19.377215   23.456339 H          1 MOL1         0.3726
       4    H3      22.856197   17.965407   23.002652 H          1 MOL1         0.3726
       5    C1      21.204404   18.482102   21.774520 C.3        1 MOL1         0.0314
       6    H4      21.062661   17.453177   21.432841 H          1 MOL1         0.0999
       7    H5      21.834015   19.001036   21.046631 H          1 MOL1         0.0999
       8    C2      19.839329   19.187094   21.873603 C.3        1 MOL1        -0.1308
       9    H6      19.215516   18.672549   22.616632 H          1 MOL1         0.1025
      10    H7      19.984226   20.215116   22.231605 H          1 MOL1         0.1025
      11    C3      19.112476   19.209195   20.510989 C.3        1 MOL1        -0.1243
      12    H8      18.970104   18.180542   20.150529 H          1 MOL1         0.1025
      13    H9      19.737831   19.721284   19.765991 H          1 MOL1         0.1025
      14    C4      17.742216   19.914843   20.602648 C.3        1 MOL1        -0.2258
      15    H10     17.242418   19.919913   19.625291 H          1 MOL1         0.1036
      16    H11     17.855294   20.957270   20.927865 H          1 MOL1         0.1036
      17    H12     17.081531   19.404392   21.315490 H          1 MOL1         0.1036
@<TRIPOS>BOND
    1     1     2    1
    2     1     3    1
    3     1     4    1
    4     1     5    1
    5     5     6    1
    6     5     7    1
    7     5     8    1
    8     8     9    1
    9     8    10    1
   10     8    11    1
   11    11    12    1
   12    11    13    1
   13    11    14    1
   14    14    15    1
   15    14    16    1
   16    14    17    1
@<TRIPOS>SUBSTRUCTURE
       1 MOL1            1 RESIDUE      1      MOL     
@<SCITEGIC>MOL_PROPERTY
VConf Rank
SciTegic.value.IntegerValue
235

@<SCITEGIC>MOL_PROPERTY
Conf_Id
SciTegic.value.IntegerValue
7

@<SCITEGIC>MOL_PROPERTY
Delta U+W
SciTegic.value.DoubleValue
0.000

@<SCITEGIC>MOL_PROPERTY
U+W
SciTegic.value.DoubleValue
-15.865

@<SCITEGIC>MOL_PROPERTY
Grad RMS
SciTegic.value.DoubleValue
0.000000

@<SCITEGIC>MOL_PROPERTY
U
SciTegic.value.DoubleValue
44.664

@<SCITEGIC>MOL_PROPERTY
W
SciTegic.value.DoubleValue
-60.529

@<SCITEGIC>MOL_PROPERTY
W(PB)
SciTegic.value.DoubleValue
-62.309

@<SCITEGIC>MOL_PROPERTY
W(SA)
SciTegic.value.DoubleValue
1.780

@<SCITEGIC>MOL_PROPERTY
Valence
SciTegic.value.DoubleValue
0.872

@<SCITEGIC>MOL_PROPERTY
Coulomb
SciTegic.value.DoubleValue
43.648

@<SCITEGIC>MOL_PROPERTY
VdW
SciTegic.value.DoubleValue
0.144

@<SCITEGIC>MOL_PROPERTY
VdW6
SciTegic.value.DoubleValue
-2.370

@<SCITEGIC>MOL_PROPERTY
VdW12
SciTegic.value.DoubleValue
2.515

@<SCITEGIC>MOL_PROPERTY
Bond
SciTegic.value.DoubleValue
0.080

@<SCITEGIC>MOL_PROPERTY
Angle
SciTegic.value.DoubleValue
0.376

@<SCITEGIC>MOL_PROPERTY
Pdih
SciTegic.value.DoubleValue
0.416

@<SCITEGIC>MOL_PROPERTY
Idih
SciTegic.value.DoubleValue
0.000

@<SCITEGIC>MOL_PROPERTY
Tether
SciTegic.value.DoubleValue
0.000

@<TRIPOS>MOLECULE
guest-1_confgen4.mol2 : confsearch ligand conformer 236
          17          16           1
SMALL
USER_CHARGES
 
@<TRIPOS>ATOM
       1    N1      21.499811   17.372793   20.996585 N.4        1 MOL1        -0.5891
       2    H1      22.045109   17.110690   21.823386 H          1 MOL1         0.3726
       3    H2      22.108352   17.946036   20.404371 H          1 MOL1         0.3726
       4    H3      21.312001   16.507965   20.479243 H          1 MOL1         0.3726
       5    C1      20.220999   18.097647   21.366154 C.3        1 MOL1         0.0314
       6    H4      19.610584   17.419965   21.969104 H          1 MOL1         0.0999
       7    H5      19.679753   18.316193   20.441963 H          1 MOL1         0.0999
       8    C2      20.467410   19.403777   22.145426 C.3        1 MOL1        -0.1308
       9    H6      21.046056   19.178658   23.051167 H          1 MOL1         0.1025
      10    H7      21.081898   20.083742   21.540496 H          1 MOL1         0.1025
      11    C3      19.154283   20.113389   22.550585 C.3        1 MOL1        -0.1243
      12    H8      19.397758   20.989002   23.168650 H          1 MOL1         0.1025
      13    H9      18.552872   19.446020   23.183915 H          1 MOL1         0.1025
      14    C4      18.315305   20.571536   21.335606 C.3        1 MOL1        -0.2258
      15    H10     18.895991   21.235789   20.682386 H          1 MOL1         0.1036
      16    H11     17.425925   21.122592   21.667793 H          1 MOL1         0.1036
      17    H12     17.971275   19.717977   20.737969 H          1 MOL1         0.1036
@<TRIPOS>BOND
    1     1     2    1
    2     1     3    1
    3     1     4    1
    4     1     5    1
    5     5     6    1
    6     5     7    1
    7     5     8    1
    8     8     9    1
    9     8    10    1
   10     8    11    1
   11    11    12    1
   12    11    13    1
   13    11    14    1
   14    14    15    1
   15    14    16    1
   16    14    17    1
@<TRIPOS>SUBSTRUCTURE
       1 MOL1            1 RESIDUE      1      MOL     
@<SCITEGIC>MOL_PROPERTY
VConf Rank
SciTegic.value.IntegerValue
236

@<SCITEGIC>MOL_PROPERTY
Conf_Id
SciTegic.value.IntegerValue
36

@<SCITEGIC>MOL_PROPERTY
Delta U+W
SciTegic.value.DoubleValue
0.275

@<SCITEGIC>MOL_PROPERTY
U+W
SciTegic.value.DoubleValue
-15.590

@<SCITEGIC>MOL_PROPERTY
Grad RMS
SciTegic.value.DoubleValue
0.000000

@<SCITEGIC>MOL_PROPERTY
U
SciTegic.value.DoubleValue
45.174

@<SCITEGIC>MOL_PROPERTY
W
SciTegic.value.DoubleValue
-60.765

@<SCITEGIC>MOL_PROPERTY
W(PB)
SciTegic.value.DoubleValue
-62.518

@<SCITEGIC>MOL_PROPERTY
W(SA)
SciTegic.value.DoubleValue
1.754

@<SCITEGIC>MOL_PROPERTY
Valence
SciTegic.value.DoubleValue
1.161

@<SCITEGIC>MOL_PROPERTY
Coulomb
SciTegic.value.DoubleValue
43.789

@<SCITEGIC>MOL_PROPERTY
VdW
SciTegic.value.DoubleValue
0.224

@<SCITEGIC>MOL_PROPERTY
VdW6
SciTegic.value.DoubleValue
-2.897

@<SCITEGIC>MOL_PROPERTY
VdW12
SciTegic.value.DoubleValue
3.121

@<SCITEGIC>MOL_PROPERTY
Bond
SciTegic.value.DoubleValue
0.100

@<SCITEGIC>MOL_PROPERTY
Angle
SciTegic.value.DoubleValue
0.500

@<SCITEGIC>MOL_PROPERTY
Pdih
SciTegic.value.DoubleValue
0.561

@<SCITEGIC>MOL_PROPERTY
Idih
SciTegic.value.DoubleValue
0.000

@<SCITEGIC>MOL_PROPERTY
Tether
SciTegic.value.DoubleValue
0.000

@<TRIPOS>MOLECULE
guest-1_confgen4.mol2 : confsearch ligand conformer 237
          17          16           1
SMALL
USER_CHARGES
 
@<TRIPOS>ATOM
       1    N1      19.927274   18.201756   19.916906 N.4        1 MOL1        -0.5891
       2    H1      18.976335   18.376940   20.251377 H          1 MOL1         0.3726
       3    H2      20.121084   17.207105   20.067194 H          1 MOL1         0.3726
       4    H3      19.924278   18.354147   18.903204 H          1 MOL1         0.3726
       5    C1      20.941377   19.085562   20.617272 C.3        1 MOL1         0.0314
       6    H4      20.726534   20.127879   20.366829 H          1 MOL1         0.0999
       7    H5      21.922708   18.834574   20.205530 H          1 MOL1         0.0999
       8    C2      20.980673   18.914173   22.150470 C.3        1 MOL1        -0.1308
       9    H6      20.946741   17.847813   22.410188 H          1 MOL1         0.1025
      10    H7      21.954343   19.279229   22.503383 H          1 MOL1         0.1025
      11    C3      19.876141   19.690094   22.912480 C.3        1 MOL1        -0.1243
      12    H8      19.960638   20.763825   22.693427 H          1 MOL1         0.1025
      13    H9      20.060466   19.584658   23.990857 H          1 MOL1         0.1025
      14    C4      18.436872   19.214543   22.610425 C.3        1 MOL1        -0.2258
      15    H10     18.127370   19.488451   21.595113 H          1 MOL1         0.1036
      16    H11     17.727077   19.686822   23.302017 H          1 MOL1         0.1036
      17    H12     18.343286   18.127145   22.728587 H          1 MOL1         0.1036
@<TRIPOS>BOND
    1     1     2    1
    2     1     3    1
    3     1     4    1
    4     1     5    1
    5     5     6    1
    6     5     7    1
    7     5     8    1
    8     8     9    1
    9     8    10    1
   10     8    11    1
   11    11    12    1
   12    11    13    1
   13    11    14    1
   14    14    15    1
   15    14    16    1
   16    14    17    1
@<TRIPOS>SUBSTRUCTURE
       1 MOL1            1 RESIDUE      1      MOL     
@<SCITEGIC>MOL_PROPERTY
VConf Rank
SciTegic.value.IntegerValue
237

@<SCITEGIC>MOL_PROPERTY
Conf_Id
SciTegic.value.IntegerValue
19

@<SCITEGIC>MOL_PROPERTY
Delta U+W
SciTegic.value.DoubleValue
2.662

@<SCITEGIC>MOL_PROPERTY
U+W
SciTegic.value.DoubleValue
-13.203

@<SCITEGIC>MOL_PROPERTY
Grad RMS
SciTegic.value.DoubleValue
0.000000

@<SCITEGIC>MOL_PROPERTY
U
SciTegic.value.DoubleValue
47.423

@<SCITEGIC>MOL_PROPERTY
W
SciTegic.value.DoubleValue
-60.626

@<SCITEGIC>MOL_PROPERTY
W(PB)
SciTegic.value.DoubleValue
-62.328

@<SCITEGIC>MOL_PROPERTY
W(SA)
SciTegic.value.DoubleValue
1.702

@<SCITEGIC>MOL_PROPERTY
Valence
SciTegic.value.DoubleValue
2.414

@<SCITEGIC>MOL_PROPERTY
Coulomb
SciTegic.value.DoubleValue
44.831

@<SCITEGIC>MOL_PROPERTY
VdW
SciTegic.value.DoubleValue
0.178

@<SCITEGIC>MOL_PROPERTY
VdW6
SciTegic.value.DoubleValue
-3.743

@<SCITEGIC>MOL_PROPERTY
VdW12
SciTegic.value.DoubleValue
3.921

@<SCITEGIC>MOL_PROPERTY
Bond
SciTegic.value.DoubleValue
0.138

@<SCITEGIC>MOL_PROPERTY
Angle
SciTegic.value.DoubleValue
0.941

@<SCITEGIC>MOL_PROPERTY
Pdih
SciTegic.value.DoubleValue
1.335

@<SCITEGIC>MOL_PROPERTY
Idih
SciTegic.value.DoubleValue
0.000

@<SCITEGIC>MOL_PROPERTY
Tether
SciTegic.value.DoubleValue
0.000

@<TRIPOS>MOLECULE
guest-1_confgen4.mol2 : confsearch ligand conformer 238
          17          16           1
SMALL
USER_CHARGES
 
@<TRIPOS>ATOM
       1    N1      19.509455   17.332389   22.172460 N.4        1 MOL1        -0.5891
       2    H1      19.856950   16.501626   22.662260 H          1 MOL1         0.3726
       3    H2      18.641771   17.058465   21.701746 H          1 MOL1         0.3726
       4    H3      19.259894   18.021487   22.886396 H          1 MOL1         0.3726
       5    C1      20.531891   17.880141   21.195407 C.3        1 MOL1         0.0314
       6    H4      20.739177   17.087350   20.471493 H          1 MOL1         0.0999
       7    H5      21.456232   18.090261   21.740149 H          1 MOL1         0.0999
       8    C2      20.072618   19.144340   20.438782 C.3        1 MOL1        -0.1308
       9    H6      20.679936   19.228533   19.527781 H          1 MOL1         0.1025
      10    H7      19.035513   19.022781   20.099128 H          1 MOL1         0.1025
      11    C3      20.227087   20.463433   21.238055 C.3        1 MOL1        -0.1243
      12    H8      19.973567   21.301935   20.574255 H          1 MOL1         0.1025
      13    H9      21.280595   20.605025   21.517507 H          1 MOL1         0.1025
      14    C4      19.342533   20.551844   22.502424 C.3        1 MOL1        -0.2258
      15    H10     18.294230   20.320895   22.272479 H          1 MOL1         0.1036
      16    H11     19.375962   21.566577   22.919983 H          1 MOL1         0.1036
      17    H12     19.691799   19.869763   23.286298 H          1 MOL1         0.1036
@<TRIPOS>BOND
    1     1     2    1
    2     1     3    1
    3     1     4    1
    4     1     5    1
    5     5     6    1
    6     5     7    1
    7     5     8    1
    8     8     9    1
    9     8    10    1
   10     8    11    1
   11    11    12    1
   12    11    13    1
   13    11    14    1
   14    14    15    1
   15    14    16    1
   16    14    17    1
@<TRIPOS>SUBSTRUCTURE
       1 MOL1            1 RESIDUE      1      MOL     
@<SCITEGIC>MOL_PROPERTY
VConf Rank
SciTegic.value.IntegerValue
238

@<SCITEGIC>MOL_PROPERTY
Conf_Id
SciTegic.value.IntegerValue
44

@<SCITEGIC>MOL_PROPERTY
Delta U+W
SciTegic.value.DoubleValue
2.712

@<SCITEGIC>MOL_PROPERTY
U+W
SciTegic.value.DoubleValue
-13.153

@<SCITEGIC>MOL_PROPERTY
Grad RMS
SciTegic.value.DoubleValue
0.000000

@<SCITEGIC>MOL_PROPERTY
U
SciTegic.value.DoubleValue
47.423

@<SCITEGIC>MOL_PROPERTY
W
SciTegic.value.DoubleValue
-60.576

@<SCITEGIC>MOL_PROPERTY
W(PB)
SciTegic.value.DoubleValue
-62.262

@<SCITEGIC>MOL_PROPERTY
W(SA)
SciTegic.value.DoubleValue
1.687

@<SCITEGIC>MOL_PROPERTY
Valence
SciTegic.value.DoubleValue
2.414

@<SCITEGIC>MOL_PROPERTY
Coulomb
SciTegic.value.DoubleValue
44.831

@<SCITEGIC>MOL_PROPERTY
VdW
SciTegic.value.DoubleValue
0.178

@<SCITEGIC>MOL_PROPERTY
VdW6
SciTegic.value.DoubleValue
-3.743

@<SCITEGIC>MOL_PROPERTY
VdW12
SciTegic.value.DoubleValue
3.922

@<SCITEGIC>MOL_PROPERTY
Bond
SciTegic.value.DoubleValue
0.138

@<SCITEGIC>MOL_PROPERTY
Angle
SciTegic.value.DoubleValue
0.941

@<SCITEGIC>MOL_PROPERTY
Pdih
SciTegic.value.DoubleValue
1.335

@<SCITEGIC>MOL_PROPERTY
Idih
SciTegic.value.DoubleValue
0.000

@<SCITEGIC>MOL_PROPERTY
Tether
SciTegic.value.DoubleValue
0.000

@<TRIPOS>MOLECULE
guest-1_confgen4.mol2 : confsearch ligand conformer 239
          17          16           1
SMALL
USER_CHARGES
 
@<TRIPOS>ATOM
       1    N1      18.016739   19.405593   21.159138 N.4        1 MOL1        -0.5891
       2    H1      18.049195   19.124476   22.143194 H          1 MOL1         0.3726
       3    H2      17.595500   18.631579   20.636800 H          1 MOL1         0.3726
       4    H3      17.367397   20.196108   21.095046 H          1 MOL1         0.3726
       5    C1      19.392938   19.761885   20.630944 C.3        1 MOL1         0.0314
       6    H4      19.769900   20.608986   21.209844 H          1 MOL1         0.0999
       7    H5      19.277531   20.086480   19.593227 H          1 MOL1         0.0999
       8    C2      20.404097   18.598413   20.692677 C.3        1 MOL1        -0.1308
       9    H6      20.036129   17.768008   20.075606 H          1 MOL1         0.1025
      10    H7      21.345803   18.926742   20.233117 H          1 MOL1         0.1025
      11    C3      20.688618   18.086424   22.126717 C.3        1 MOL1        -0.1243
      12    H8      21.403961   17.253994   22.069731 H          1 MOL1         0.1025
      13    H9      19.772909   17.669338   22.567366 H          1 MOL1         0.1025
      14    C4      21.263031   19.179325   23.056994 C.3        1 MOL1        -0.2258
      15    H10     22.181002   19.611615   22.638039 H          1 MOL1         0.1036
      16    H11     21.510109   18.757490   24.039835 H          1 MOL1         0.1036
      17    H12     20.543783   19.992307   23.217276 H          1 MOL1         0.1036
@<TRIPOS>BOND
    1     1     2    1
    2     1     3    1
    3     1     4    1
    4     1     5    1
    5     5     6    1
    6     5     7    1
    7     5     8    1
    8     8     9    1
    9     8    10    1
   10     8    11    1
   11    11    12    1
   12    11    13    1
   13    11    14    1
   14    14    15    1
   15    14    16    1
   16    14    17    1
@<TRIPOS>SUBSTRUCTURE
       1 MOL1            1 RESIDUE      1      MOL     
@<SCITEGIC>MOL_PROPERTY
VConf Rank
SciTegic.value.IntegerValue
239

@<SCITEGIC>MOL_PROPERTY
Conf_Id
SciTegic.value.IntegerValue
1

@<SCITEGIC>MOL_PROPERTY
Delta U+W
SciTegic.value.DoubleValue
0.685

@<SCITEGIC>MOL_PROPERTY
U+W
SciTegic.value.DoubleValue
-15.179

@<SCITEGIC>MOL_PROPERTY
Grad RMS
SciTegic.value.DoubleValue
0.000000

@<SCITEGIC>MOL_PROPERTY
U
SciTegic.value.DoubleValue
45.697

@<SCITEGIC>MOL_PROPERTY
W
SciTegic.value.DoubleValue
-60.876

@<SCITEGIC>MOL_PROPERTY
W(PB)
SciTegic.value.DoubleValue
-62.586

@<SCITEGIC>MOL_PROPERTY
W(SA)
SciTegic.value.DoubleValue
1.710

@<SCITEGIC>MOL_PROPERTY
Valence
SciTegic.value.DoubleValue
1.263

@<SCITEGIC>MOL_PROPERTY
Coulomb
SciTegic.value.DoubleValue
44.179

@<SCITEGIC>MOL_PROPERTY
VdW
SciTegic.value.DoubleValue
0.255

@<SCITEGIC>MOL_PROPERTY
VdW6
SciTegic.value.DoubleValue
-3.552

@<SCITEGIC>MOL_PROPERTY
VdW12
SciTegic.value.DoubleValue
3.807

@<SCITEGIC>MOL_PROPERTY
Bond
SciTegic.value.DoubleValue
0.125

@<SCITEGIC>MOL_PROPERTY
Angle
SciTegic.value.DoubleValue
0.616

@<SCITEGIC>MOL_PROPERTY
Pdih
SciTegic.value.DoubleValue
0.521

@<SCITEGIC>MOL_PROPERTY
Idih
SciTegic.value.DoubleValue
0.000

@<SCITEGIC>MOL_PROPERTY
Tether
SciTegic.value.DoubleValue
0.000

@<TRIPOS>MOLECULE
guest-1_confgen4.mol2 : confsearch ligand conformer 240
          17          16           1
SMALL
USER_CHARGES
 
@<TRIPOS>ATOM
       1    N1      19.586268   20.235754   23.140745 N.4        1 MOL1        -0.5891
       2    H1      19.884625   21.195061   22.940518 H          1 MOL1         0.3726
       3    H2      20.428493   19.696378   23.360244 H          1 MOL1         0.3726
       4    H3      19.022645   20.271785   23.996138 H          1 MOL1         0.3726
       5    C1      18.816568   19.629377   21.983279 C.3        1 MOL1         0.0314
       6    H4      17.916529   20.231096   21.830305 H          1 MOL1         0.0999
       7    H5      18.504567   18.622737   22.273342 H          1 MOL1         0.0999
       8    C2      19.618631   19.566406   20.666977 C.3        1 MOL1        -0.1308
       9    H6      18.964893   19.176211   19.875662 H          1 MOL1         0.1025
      10    H7      19.892252   20.585336   20.362576 H          1 MOL1         0.1025
      11    C3      20.895948   18.693854   20.748657 C.3        1 MOL1        -0.1243
      12    H8      21.601653   19.124310   21.472081 H          1 MOL1         0.1025
      13    H9      21.405571   18.720719   19.775278 H          1 MOL1         0.1025
      14    C4      20.601443   17.222612   21.120829 C.3        1 MOL1        -0.2258
      15    H10     21.524472   16.628756   21.102941 H          1 MOL1         0.1036
      16    H11     19.897974   16.769126   20.410513 H          1 MOL1         0.1036
      17    H12     20.173454   17.138522   22.127657 H          1 MOL1         0.1036
@<TRIPOS>BOND
    1     1     2    1
    2     1     3    1
    3     1     4    1
    4     1     5    1
    5     5     6    1
    6     5     7    1
    7     5     8    1
    8     8     9    1
    9     8    10    1
   10     8    11    1
   11    11    12    1
   12    11    13    1
   13    11    14    1
   14    14    15    1
   15    14    16    1
   16    14    17    1
@<TRIPOS>SUBSTRUCTURE
       1 MOL1            1 RESIDUE      1      MOL     
@<SCITEGIC>MOL_PROPERTY
VConf Rank
SciTegic.value.IntegerValue
240

@<SCITEGIC>MOL_PROPERTY
Conf_Id
SciTegic.value.IntegerValue
43

@<SCITEGIC>MOL_PROPERTY
Delta U+W
SciTegic.value.DoubleValue
0.642

@<SCITEGIC>MOL_PROPERTY
U+W
SciTegic.value.DoubleValue
-15.222

@<SCITEGIC>MOL_PROPERTY
Grad RMS
SciTegic.value.DoubleValue
0.000000

@<SCITEGIC>MOL_PROPERTY
U
SciTegic.value.DoubleValue
45.697

@<SCITEGIC>MOL_PROPERTY
W
SciTegic.value.DoubleValue
-60.919

@<SCITEGIC>MOL_PROPERTY
W(PB)
SciTegic.value.DoubleValue
-62.631

@<SCITEGIC>MOL_PROPERTY
W(SA)
SciTegic.value.DoubleValue
1.712

@<SCITEGIC>MOL_PROPERTY
Valence
SciTegic.value.DoubleValue
1.262

@<SCITEGIC>MOL_PROPERTY
Coulomb
SciTegic.value.DoubleValue
44.179

@<SCITEGIC>MOL_PROPERTY
VdW
SciTegic.value.DoubleValue
0.255

@<SCITEGIC>MOL_PROPERTY
VdW6
SciTegic.value.DoubleValue
-3.552

@<SCITEGIC>MOL_PROPERTY
VdW12
SciTegic.value.DoubleValue
3.807

@<SCITEGIC>MOL_PROPERTY
Bond
SciTegic.value.DoubleValue
0.125

@<SCITEGIC>MOL_PROPERTY
Angle
SciTegic.value.DoubleValue
0.616

@<SCITEGIC>MOL_PROPERTY
Pdih
SciTegic.value.DoubleValue
0.521

@<SCITEGIC>MOL_PROPERTY
Idih
SciTegic.value.DoubleValue
0.000

@<SCITEGIC>MOL_PROPERTY
Tether
SciTegic.value.DoubleValue
0.000

@<TRIPOS>MOLECULE
guest-1_confgen4.mol2 : confsearch ligand conformer 241
          17          16           1
SMALL
USER_CHARGES
 
@<TRIPOS>ATOM
       1    N1      21.038651   20.813105   20.070508 N.4        1 MOL1        -0.5891
       2    H1      20.964770   20.287014   19.194456 H          1 MOL1         0.3726
       3    H2      22.000943   20.705841   20.405447 H          1 MOL1         0.3726
       4    H3      20.916281   21.802795   19.832921 H          1 MOL1         0.3726
       5    C1      20.024802   20.350659   21.097937 C.3        1 MOL1         0.0314
       6    H4      19.025971   20.522251   20.687552 H          1 MOL1         0.0999
       7    H5      20.140162   20.972659   21.989751 H          1 MOL1         0.0999
       8    C2      20.180028   18.866923   21.478324 C.3        1 MOL1        -0.1308
       9    H6      20.078998   18.246447   20.577883 H          1 MOL1         0.1025
      10    H7      21.189292   18.695336   21.875734 H          1 MOL1         0.1025
      11    C3      19.129374   18.437300   22.525735 C.3        1 MOL1        -0.1243
      12    H8      18.118900   18.611921   22.129786 H          1 MOL1         0.1025
      13    H9      19.227879   19.060202   23.426077 H          1 MOL1         0.1025
      14    C4      19.278891   16.949932   22.912175 C.3        1 MOL1        -0.2258
      15    H10     18.524063   16.664813   23.656480 H          1 MOL1         0.1036
      16    H11     20.268538   16.751130   23.343780 H          1 MOL1         0.1036
      17    H12     19.150863   16.299318   22.037236 H          1 MOL1         0.1036
@<TRIPOS>BOND
    1     1     2    1
    2     1     3    1
    3     1     4    1
    4     1     5    1
    5     5     6    1
    6     5     7    1
    7     5     8    1
    8     8     9    1
    9     8    10    1
   10     8    11    1
   11    11    12    1
   12    11    13    1
   13    11    14    1
   14    14    15    1
   15    14    16    1
   16    14    17    1
@<TRIPOS>SUBSTRUCTURE
       1 MOL1            1 RESIDUE      1      MOL     
@<SCITEGIC>MOL_PROPERTY
VConf Rank
SciTegic.value.IntegerValue
241

@<SCITEGIC>MOL_PROPERTY
Conf_Id
SciTegic.value.IntegerValue
7

@<SCITEGIC>MOL_PROPERTY
Delta U+W
SciTegic.value.DoubleValue
0.000

@<SCITEGIC>MOL_PROPERTY
U+W
SciTegic.value.DoubleValue
-15.865

@<SCITEGIC>MOL_PROPERTY
Grad RMS
SciTegic.value.DoubleValue
0.000000

@<SCITEGIC>MOL_PROPERTY
U
SciTegic.value.DoubleValue
44.664

@<SCITEGIC>MOL_PROPERTY
W
SciTegic.value.DoubleValue
-60.529

@<SCITEGIC>MOL_PROPERTY
W(PB)
SciTegic.value.DoubleValue
-62.309

@<SCITEGIC>MOL_PROPERTY
W(SA)
SciTegic.value.DoubleValue
1.780

@<SCITEGIC>MOL_PROPERTY
Valence
SciTegic.value.DoubleValue
0.872

@<SCITEGIC>MOL_PROPERTY
Coulomb
SciTegic.value.DoubleValue
43.648

@<SCITEGIC>MOL_PROPERTY
VdW
SciTegic.value.DoubleValue
0.144

@<SCITEGIC>MOL_PROPERTY
VdW6
SciTegic.value.DoubleValue
-2.370

@<SCITEGIC>MOL_PROPERTY
VdW12
SciTegic.value.DoubleValue
2.515

@<SCITEGIC>MOL_PROPERTY
Bond
SciTegic.value.DoubleValue
0.080

@<SCITEGIC>MOL_PROPERTY
Angle
SciTegic.value.DoubleValue
0.376

@<SCITEGIC>MOL_PROPERTY
Pdih
SciTegic.value.DoubleValue
0.416

@<SCITEGIC>MOL_PROPERTY
Idih
SciTegic.value.DoubleValue
0.000

@<SCITEGIC>MOL_PROPERTY
Tether
SciTegic.value.DoubleValue
0.000

@<TRIPOS>MOLECULE
guest-1_confgen4.mol2 : confsearch ligand conformer 242
          17          16           1
SMALL
USER_CHARGES
 
@<TRIPOS>ATOM
       1    N1      18.430393   20.796740   22.451553 N.4        1 MOL1        -0.5891
       2    H1      18.936298   21.686494   22.496781 H          1 MOL1         0.3726
       3    H2      18.344741   20.450396   23.411947 H          1 MOL1         0.3726
       4    H3      17.481630   21.011553   22.128214 H          1 MOL1         0.3726
       5    C1      19.121281   19.796055   21.546756 C.3        1 MOL1         0.0314
       6    H4      19.150511   20.216536   20.537920 H          1 MOL1         0.0999
       7    H5      18.512203   18.888708   21.522606 H          1 MOL1         0.0999
       8    C2      20.551159   19.450153   22.004750 C.3        1 MOL1        -0.1308
       9    H6      21.143114   20.373157   22.064170 H          1 MOL1         0.1025
      10    H7      20.521948   19.029389   23.018650 H          1 MOL1         0.1025
      11    C3      21.259192   18.458689   21.052020 C.3        1 MOL1        -0.1243
      12    H8      22.295667   18.317821   21.389447 H          1 MOL1         0.1025
      13    H9      21.318962   18.892481   20.043837 H          1 MOL1         0.1025
      14    C4      20.559609   17.081761   20.984126 C.3        1 MOL1        -0.2258
      15    H10     20.481539   16.628682   21.980995 H          1 MOL1         0.1036
      16    H11     21.128108   16.392205   20.346687 H          1 MOL1         0.1036
      17    H12     19.549026   17.162952   20.564338 H          1 MOL1         0.1036
@<TRIPOS>BOND
    1     1     2    1
    2     1     3    1
    3     1     4    1
    4     1     5    1
    5     5     6    1
    6     5     7    1
    7     5     8    1
    8     8     9    1
    9     8    10    1
   10     8    11    1
   11    11    12    1
   12    11    13    1
   13    11    14    1
   14    14    15    1
   15    14    16    1
   16    14    17    1
@<TRIPOS>SUBSTRUCTURE
       1 MOL1            1 RESIDUE      1      MOL     
@<SCITEGIC>MOL_PROPERTY
VConf Rank
SciTegic.value.IntegerValue
242

@<SCITEGIC>MOL_PROPERTY
Conf_Id
SciTegic.value.IntegerValue
36

@<SCITEGIC>MOL_PROPERTY
Delta U+W
SciTegic.value.DoubleValue
0.275

@<SCITEGIC>MOL_PROPERTY
U+W
SciTegic.value.DoubleValue
-15.590

@<SCITEGIC>MOL_PROPERTY
Grad RMS
SciTegic.value.DoubleValue
0.000000

@<SCITEGIC>MOL_PROPERTY
U
SciTegic.value.DoubleValue
45.174

@<SCITEGIC>MOL_PROPERTY
W
SciTegic.value.DoubleValue
-60.765

@<SCITEGIC>MOL_PROPERTY
W(PB)
SciTegic.value.DoubleValue
-62.518

@<SCITEGIC>MOL_PROPERTY
W(SA)
SciTegic.value.DoubleValue
1.754

@<SCITEGIC>MOL_PROPERTY
Valence
SciTegic.value.DoubleValue
1.161

@<SCITEGIC>MOL_PROPERTY
Coulomb
SciTegic.value.DoubleValue
43.789

@<SCITEGIC>MOL_PROPERTY
VdW
SciTegic.value.DoubleValue
0.224

@<SCITEGIC>MOL_PROPERTY
VdW6
SciTegic.value.DoubleValue
-2.897

@<SCITEGIC>MOL_PROPERTY
VdW12
SciTegic.value.DoubleValue
3.121

@<SCITEGIC>MOL_PROPERTY
Bond
SciTegic.value.DoubleValue
0.100

@<SCITEGIC>MOL_PROPERTY
Angle
SciTegic.value.DoubleValue
0.500

@<SCITEGIC>MOL_PROPERTY
Pdih
SciTegic.value.DoubleValue
0.561

@<SCITEGIC>MOL_PROPERTY
Idih
SciTegic.value.DoubleValue
0.000

@<SCITEGIC>MOL_PROPERTY
Tether
SciTegic.value.DoubleValue
0.000

@<TRIPOS>MOLECULE
guest-1_confgen4.mol2 : confsearch ligand conformer 243
          17          16           1
SMALL
USER_CHARGES
 
@<TRIPOS>ATOM
       1    N1      19.810327   20.581859   20.654830 N.4        1 MOL1        -0.5891
       2    H1      18.902121   20.300071   21.032456 H          1 MOL1         0.3726
       3    H2      19.817633   20.323782   19.663455 H          1 MOL1         0.3726
       4    H3      19.850615   21.605342   20.695843 H          1 MOL1         0.3726
       5    C1      20.957451   19.941299   21.412337 C.3        1 MOL1         0.0314
       6    H4      20.939670   20.304556   22.443371 H          1 MOL1         0.0999
       7    H5      21.882931   20.291085   20.946854 H          1 MOL1         0.0999
       8    C2      20.941447   18.398170   21.401866 C.3        1 MOL1        -0.1308
       9    H6      20.710118   18.031796   20.392913 H          1 MOL1         0.1025
      10    H7      21.959764   18.051223   21.622103 H          1 MOL1         0.1025
      11    C3      19.984972   17.758244   22.440305 C.3        1 MOL1        -0.1243
      12    H8      20.266734   18.083204   23.451756 H          1 MOL1         0.1025
      13    H9      20.130517   16.669034   22.419627 H          1 MOL1         0.1025
      14    C4      18.488001   18.059339   22.200930 C.3        1 MOL1        -0.2258
      15    H10     18.249067   19.107441   22.415562 H          1 MOL1         0.1036
      16    H11     17.865469   17.444684   22.864112 H          1 MOL1         0.1036
      17    H12     18.196360   17.833588   21.166940 H          1 MOL1         0.1036
@<TRIPOS>BOND
    1     1     2    1
    2     1     3    1
    3     1     4    1
    4     1     5    1
    5     5     6    1
    6     5     7    1
    7     5     8    1
    8     8     9    1
    9     8    10    1
   10     8    11    1
   11    11    12    1
   12    11    13    1
   13    11    14    1
   14    14    15    1
   15    14    16    1
   16    14    17    1
@<TRIPOS>SUBSTRUCTURE
       1 MOL1            1 RESIDUE      1      MOL     
@<SCITEGIC>MOL_PROPERTY
VConf Rank
SciTegic.value.IntegerValue
243

@<SCITEGIC>MOL_PROPERTY
Conf_Id
SciTegic.value.IntegerValue
19

@<SCITEGIC>MOL_PROPERTY
Delta U+W
SciTegic.value.DoubleValue
2.662

@<SCITEGIC>MOL_PROPERTY
U+W
SciTegic.value.DoubleValue
-13.203

@<SCITEGIC>MOL_PROPERTY
Grad RMS
SciTegic.value.DoubleValue
0.000000

@<SCITEGIC>MOL_PROPERTY
U
SciTegic.value.DoubleValue
47.423

@<SCITEGIC>MOL_PROPERTY
W
SciTegic.value.DoubleValue
-60.626

@<SCITEGIC>MOL_PROPERTY
W(PB)
SciTegic.value.DoubleValue
-62.328

@<SCITEGIC>MOL_PROPERTY
W(SA)
SciTegic.value.DoubleValue
1.702

@<SCITEGIC>MOL_PROPERTY
Valence
SciTegic.value.DoubleValue
2.414

@<SCITEGIC>MOL_PROPERTY
Coulomb
SciTegic.value.DoubleValue
44.831

@<SCITEGIC>MOL_PROPERTY
VdW
SciTegic.value.DoubleValue
0.178

@<SCITEGIC>MOL_PROPERTY
VdW6
SciTegic.value.DoubleValue
-3.743

@<SCITEGIC>MOL_PROPERTY
VdW12
SciTegic.value.DoubleValue
3.921

@<SCITEGIC>MOL_PROPERTY
Bond
SciTegic.value.DoubleValue
0.138

@<SCITEGIC>MOL_PROPERTY
Angle
SciTegic.value.DoubleValue
0.941

@<SCITEGIC>MOL_PROPERTY
Pdih
SciTegic.value.DoubleValue
1.335

@<SCITEGIC>MOL_PROPERTY
Idih
SciTegic.value.DoubleValue
0.000

@<SCITEGIC>MOL_PROPERTY
Tether
SciTegic.value.DoubleValue
0.000

@<TRIPOS>MOLECULE
guest-1_confgen4.mol2 : confsearch ligand conformer 244
          17          16           1
SMALL
USER_CHARGES
 
@<TRIPOS>ATOM
       1    N1      18.713204   18.064333   20.552585 N.4        1 MOL1        -0.5891
       2    H1      18.537436   17.169177   20.085011 H          1 MOL1         0.3726
       3    H2      18.010808   18.724043   20.204876 H          1 MOL1         0.3726
       4    H3      18.528492   17.925724   21.549336 H          1 MOL1         0.3726
       5    C1      20.124467   18.561988   20.306182 C.3        1 MOL1         0.0314
       6    H4      20.236243   18.684437   19.225419 H          1 MOL1         0.0999
       7    H5      20.827463   17.791208   20.633285 H          1 MOL1         0.0999
       8    C2      20.455754   19.899740   21.000647 C.3        1 MOL1        -0.1308
       9    H6      21.309356   20.347674   20.474753 H          1 MOL1         0.1025
      10    H7      19.622381   20.603869   20.876472 H          1 MOL1         0.1025
      11    C3      20.833486   19.770146   22.498388 C.3        1 MOL1        -0.1243
      12    H8      21.150052   20.757812   22.862110 H          1 MOL1         0.1025
      13    H9      21.708262   19.113062   22.603400 H          1 MOL1         0.1025
      14    C4      19.691125   19.255381   23.403323 C.3        1 MOL1        -0.2258
      15    H10     18.770640   19.833957   23.251303 H          1 MOL1         0.1036
      16    H11     19.971918   19.348316   24.460524 H          1 MOL1         0.1036
      17    H12     19.478125   18.195979   23.218990 H          1 MOL1         0.1036
@<TRIPOS>BOND
    1     1     2    1
    2     1     3    1
    3     1     4    1
    4     1     5    1
    5     5     6    1
    6     5     7    1
    7     5     8    1
    8     8     9    1
    9     8    10    1
   10     8    11    1
   11    11    12    1
   12    11    13    1
   13    11    14    1
   14    14    15    1
   15    14    16    1
   16    14    17    1
@<TRIPOS>SUBSTRUCTURE
       1 MOL1            1 RESIDUE      1      MOL     
@<SCITEGIC>MOL_PROPERTY
VConf Rank
SciTegic.value.IntegerValue
244

@<SCITEGIC>MOL_PROPERTY
Conf_Id
SciTegic.value.IntegerValue
44

@<SCITEGIC>MOL_PROPERTY
Delta U+W
SciTegic.value.DoubleValue
2.712

@<SCITEGIC>MOL_PROPERTY
U+W
SciTegic.value.DoubleValue
-13.153

@<SCITEGIC>MOL_PROPERTY
Grad RMS
SciTegic.value.DoubleValue
0.000000

@<SCITEGIC>MOL_PROPERTY
U
SciTegic.value.DoubleValue
47.423

@<SCITEGIC>MOL_PROPERTY
W
SciTegic.value.DoubleValue
-60.576

@<SCITEGIC>MOL_PROPERTY
W(PB)
SciTegic.value.DoubleValue
-62.262

@<SCITEGIC>MOL_PROPERTY
W(SA)
SciTegic.value.DoubleValue
1.687

@<SCITEGIC>MOL_PROPERTY
Valence
SciTegic.value.DoubleValue
2.414

@<SCITEGIC>MOL_PROPERTY
Coulomb
SciTegic.value.DoubleValue
44.831

@<SCITEGIC>MOL_PROPERTY
VdW
SciTegic.value.DoubleValue
0.178

@<SCITEGIC>MOL_PROPERTY
VdW6
SciTegic.value.DoubleValue
-3.743

@<SCITEGIC>MOL_PROPERTY
VdW12
SciTegic.value.DoubleValue
3.922

@<SCITEGIC>MOL_PROPERTY
Bond
SciTegic.value.DoubleValue
0.138

@<SCITEGIC>MOL_PROPERTY
Angle
SciTegic.value.DoubleValue
0.941

@<SCITEGIC>MOL_PROPERTY
Pdih
SciTegic.value.DoubleValue
1.335

@<SCITEGIC>MOL_PROPERTY
Idih
SciTegic.value.DoubleValue
0.000

@<SCITEGIC>MOL_PROPERTY
Tether
SciTegic.value.DoubleValue
0.000

@<TRIPOS>MOLECULE
guest-1_confgen4.mol2 : confsearch ligand conformer 245
          17          16           1
SMALL
USER_CHARGES
 
@<TRIPOS>ATOM
       1    N1      20.742244   18.157180   20.021023 N.4        1 MOL1        -0.5891
       2    H1      21.478310   18.262837   20.724932 H          1 MOL1         0.3726
       3    H2      20.938618   18.830204   19.274126 H          1 MOL1         0.3726
       4    H3      20.848802   17.222187   19.614696 H          1 MOL1         0.3726
       5    C1      19.362244   18.359455   20.616458 C.3        1 MOL1         0.0314
       6    H4      19.207255   17.594500   21.381720 H          1 MOL1         0.0999
       7    H5      18.629408   18.195599   19.821700 H          1 MOL1         0.0999
       8    C2      19.147234   19.759005   21.228791 C.3        1 MOL1        -0.1308
       9    H6      19.264932   20.517781   20.443836 H          1 MOL1         0.1025
      10    H7      18.107684   19.835327   21.574213 H          1 MOL1         0.1025
      11    C3      20.100165   20.084892   22.405768 C.3        1 MOL1        -0.1243
      12    H8      19.883888   21.100732   22.765209 H          1 MOL1         0.1025
      13    H9      21.141001   20.102814   22.055063 H          1 MOL1         0.1025
      14    C4      19.965346   19.095380   23.585806 C.3        1 MOL1        -0.2258
      15    H10     18.932252   19.060361   23.955343 H          1 MOL1         0.1036
      16    H11     20.609094   19.401606   24.420541 H          1 MOL1         0.1036
      17    H12     20.260167   18.078902   23.296323 H          1 MOL1         0.1036
@<TRIPOS>BOND
    1     1     2    1
    2     1     3    1
    3     1     4    1
    4     1     5    1
    5     5     6    1
    6     5     7    1
    7     5     8    1
    8     8     9    1
    9     8    10    1
   10     8    11    1
   11    11    12    1
   12    11    13    1
   13    11    14    1
   14    14    15    1
   15    14    16    1
   16    14    17    1
@<TRIPOS>SUBSTRUCTURE
       1 MOL1            1 RESIDUE      1      MOL     
@<SCITEGIC>MOL_PROPERTY
VConf Rank
SciTegic.value.IntegerValue
245

@<SCITEGIC>MOL_PROPERTY
Conf_Id
SciTegic.value.IntegerValue
1

@<SCITEGIC>MOL_PROPERTY
Delta U+W
SciTegic.value.DoubleValue
0.685

@<SCITEGIC>MOL_PROPERTY
U+W
SciTegic.value.DoubleValue
-15.179

@<SCITEGIC>MOL_PROPERTY
Grad RMS
SciTegic.value.DoubleValue
0.000000

@<SCITEGIC>MOL_PROPERTY
U
SciTegic.value.DoubleValue
45.697

@<SCITEGIC>MOL_PROPERTY
W
SciTegic.value.DoubleValue
-60.876

@<SCITEGIC>MOL_PROPERTY
W(PB)
SciTegic.value.DoubleValue
-62.586

@<SCITEGIC>MOL_PROPERTY
W(SA)
SciTegic.value.DoubleValue
1.710

@<SCITEGIC>MOL_PROPERTY
Valence
SciTegic.value.DoubleValue
1.263

@<SCITEGIC>MOL_PROPERTY
Coulomb
SciTegic.value.DoubleValue
44.179

@<SCITEGIC>MOL_PROPERTY
VdW
SciTegic.value.DoubleValue
0.255

@<SCITEGIC>MOL_PROPERTY
VdW6
SciTegic.value.DoubleValue
-3.552

@<SCITEGIC>MOL_PROPERTY
VdW12
SciTegic.value.DoubleValue
3.807

@<SCITEGIC>MOL_PROPERTY
Bond
SciTegic.value.DoubleValue
0.125

@<SCITEGIC>MOL_PROPERTY
Angle
SciTegic.value.DoubleValue
0.616

@<SCITEGIC>MOL_PROPERTY
Pdih
SciTegic.value.DoubleValue
0.521

@<SCITEGIC>MOL_PROPERTY
Idih
SciTegic.value.DoubleValue
0.000

@<SCITEGIC>MOL_PROPERTY
Tether
SciTegic.value.DoubleValue
0.000

@<TRIPOS>MOLECULE
guest-1_confgen4.mol2 : confsearch ligand conformer 246
          17          16           1
SMALL
USER_CHARGES
 
@<TRIPOS>ATOM
       1    N1      21.329365   20.244060   20.891631 N.4        1 MOL1        -0.5891
       2    H1      21.988457   19.744780   20.286905 H          1 MOL1         0.3726
       3    H2      21.581020   20.024875   21.859658 H          1 MOL1         0.3726
       4    H3      21.501888   21.245452   20.757028 H          1 MOL1         0.3726
       5    C1      19.890512   19.873768   20.587584 C.3        1 MOL1         0.0314
       6    H4      19.681782   20.168567   19.555565 H          1 MOL1         0.0999
       7    H5      19.242945   20.460731   21.244041 H          1 MOL1         0.0999
       8    C2      19.583864   18.371911   20.761689 C.3        1 MOL1        -0.1308
       9    H6      18.544214   18.188386   20.459613 H          1 MOL1         0.1025
      10    H7      20.209907   17.793624   20.069301 H          1 MOL1         0.1025
      11    C3      19.794854   17.848941   22.204445 C.3        1 MOL1        -0.1243
      12    H8      20.851877   17.941291   22.488747 H          1 MOL1         0.1025
      13    H9      19.567482   16.773925   22.227855 H          1 MOL1         0.1025
      14    C4      18.910490   18.572036   23.245997 C.3        1 MOL1        -0.2258
      15    H10     19.044155   18.126490   24.240276 H          1 MOL1         0.1036
      16    H11     17.847404   18.492840   22.983999 H          1 MOL1         0.1036
      17    H12     19.165769   19.636362   23.323406 H          1 MOL1         0.1036
@<TRIPOS>BOND
    1     1     2    1
    2     1     3    1
    3     1     4    1
    4     1     5    1
    5     5     6    1
    6     5     7    1
    7     5     8    1
    8     8     9    1
    9     8    10    1
   10     8    11    1
   11    11    12    1
   12    11    13    1
   13    11    14    1
   14    14    15    1
   15    14    16    1
   16    14    17    1
@<TRIPOS>SUBSTRUCTURE
       1 MOL1            1 RESIDUE      1      MOL     
@<SCITEGIC>MOL_PROPERTY
VConf Rank
SciTegic.value.IntegerValue
246

@<SCITEGIC>MOL_PROPERTY
Conf_Id
SciTegic.value.IntegerValue
43

@<SCITEGIC>MOL_PROPERTY
Delta U+W
SciTegic.value.DoubleValue
0.642

@<SCITEGIC>MOL_PROPERTY
U+W
SciTegic.value.DoubleValue
-15.222

@<SCITEGIC>MOL_PROPERTY
Grad RMS
SciTegic.value.DoubleValue
0.000000

@<SCITEGIC>MOL_PROPERTY
U
SciTegic.value.DoubleValue
45.697

@<SCITEGIC>MOL_PROPERTY
W
SciTegic.value.DoubleValue
-60.919

@<SCITEGIC>MOL_PROPERTY
W(PB)
SciTegic.value.DoubleValue
-62.631

@<SCITEGIC>MOL_PROPERTY
W(SA)
SciTegic.value.DoubleValue
1.712

@<SCITEGIC>MOL_PROPERTY
Valence
SciTegic.value.DoubleValue
1.262

@<SCITEGIC>MOL_PROPERTY
Coulomb
SciTegic.value.DoubleValue
44.179

@<SCITEGIC>MOL_PROPERTY
VdW
SciTegic.value.DoubleValue
0.255

@<SCITEGIC>MOL_PROPERTY
VdW6
SciTegic.value.DoubleValue
-3.552

@<SCITEGIC>MOL_PROPERTY
VdW12
SciTegic.value.DoubleValue
3.807

@<SCITEGIC>MOL_PROPERTY
Bond
SciTegic.value.DoubleValue
0.125

@<SCITEGIC>MOL_PROPERTY
Angle
SciTegic.value.DoubleValue
0.616

@<SCITEGIC>MOL_PROPERTY
Pdih
SciTegic.value.DoubleValue
0.521

@<SCITEGIC>MOL_PROPERTY
Idih
SciTegic.value.DoubleValue
0.000

@<SCITEGIC>MOL_PROPERTY
Tether
SciTegic.value.DoubleValue
0.000

@<TRIPOS>MOLECULE
guest-1_confgen4.mol2 : confsearch ligand conformer 247
          17          16           1
SMALL
USER_CHARGES
 
@<TRIPOS>ATOM
       1    N1      20.800667   20.749889   19.863814 N.4        1 MOL1        -0.5891
       2    H1      21.421282   21.279314   20.483687 H          1 MOL1         0.3726
       3    H2      19.934895   21.290034   19.772273 H          1 MOL1         0.3726
       4    H3      21.243167   20.740573   18.939144 H          1 MOL1         0.3726
       5    C1      20.543635   19.348057   20.379718 C.3        1 MOL1         0.0314
       6    H4      21.501788   18.823025   20.422243 H          1 MOL1         0.0999
       7    H5      19.903472   18.834532   19.657216 H          1 MOL1         0.0999
       8    C2      19.878884   19.324932   21.768182 C.3        1 MOL1        -0.1308
       9    H6      20.517209   19.854881   22.487686 H          1 MOL1         0.1025
      10    H7      18.924335   19.866213   21.725258 H          1 MOL1         0.1025
      11    C3      19.635112   17.879896   22.255999 C.3        1 MOL1        -0.1243
      12    H8      20.589843   17.336559   22.295998 H          1 MOL1         0.1025
      13    H9      18.998860   17.347899   21.534550 H          1 MOL1         0.1025
      14    C4      18.968515   17.848776   23.648347 C.3        1 MOL1        -0.2258
      15    H10     18.804082   16.814242   23.976599 H          1 MOL1         0.1036
      16    H11     17.994568   18.355097   23.631812 H          1 MOL1         0.1036
      17    H12     19.598093   18.343727   24.399255 H          1 MOL1         0.1036
@<TRIPOS>BOND
    1     1     2    1
    2     1     3    1
    3     1     4    1
    4     1     5    1
    5     5     6    1
    6     5     7    1
    7     5     8    1
    8     8     9    1
    9     8    10    1
   10     8    11    1
   11    11    12    1
   12    11    13    1
   13    11    14    1
   14    14    15    1
   15    14    16    1
   16    14    17    1
@<TRIPOS>SUBSTRUCTURE
       1 MOL1            1 RESIDUE      1      MOL     
@<SCITEGIC>MOL_PROPERTY
VConf Rank
SciTegic.value.IntegerValue
247

@<SCITEGIC>MOL_PROPERTY
Conf_Id
SciTegic.value.IntegerValue
7

@<SCITEGIC>MOL_PROPERTY
Delta U+W
SciTegic.value.DoubleValue
0.000

@<SCITEGIC>MOL_PROPERTY
U+W
SciTegic.value.DoubleValue
-15.865

@<SCITEGIC>MOL_PROPERTY
Grad RMS
SciTegic.value.DoubleValue
0.000000

@<SCITEGIC>MOL_PROPERTY
U
SciTegic.value.DoubleValue
44.664

@<SCITEGIC>MOL_PROPERTY
W
SciTegic.value.DoubleValue
-60.529

@<SCITEGIC>MOL_PROPERTY
W(PB)
SciTegic.value.DoubleValue
-62.309

@<SCITEGIC>MOL_PROPERTY
W(SA)
SciTegic.value.DoubleValue
1.780

@<SCITEGIC>MOL_PROPERTY
Valence
SciTegic.value.DoubleValue
0.872

@<SCITEGIC>MOL_PROPERTY
Coulomb
SciTegic.value.DoubleValue
43.648

@<SCITEGIC>MOL_PROPERTY
VdW
SciTegic.value.DoubleValue
0.144

@<SCITEGIC>MOL_PROPERTY
VdW6
SciTegic.value.DoubleValue
-2.370

@<SCITEGIC>MOL_PROPERTY
VdW12
SciTegic.value.DoubleValue
2.515

@<SCITEGIC>MOL_PROPERTY
Bond
SciTegic.value.DoubleValue
0.080

@<SCITEGIC>MOL_PROPERTY
Angle
SciTegic.value.DoubleValue
0.376

@<SCITEGIC>MOL_PROPERTY
Pdih
SciTegic.value.DoubleValue
0.416

@<SCITEGIC>MOL_PROPERTY
Idih
SciTegic.value.DoubleValue
0.000

@<SCITEGIC>MOL_PROPERTY
Tether
SciTegic.value.DoubleValue
0.000

@<TRIPOS>MOLECULE
guest-1_confgen4.mol2 : confsearch ligand conformer 248
          17          16           1
SMALL
USER_CHARGES
 
@<TRIPOS>ATOM
       1    N1      18.891882   19.779252   19.549949 N.4        1 MOL1        -0.5891
       2    H1      19.602828   19.783005   18.812257 H          1 MOL1         0.3726
       3    H2      18.712176   20.756577   19.799326 H          1 MOL1         0.3726
       4    H3      18.030069   19.417499   19.128930 H          1 MOL1         0.3726
       5    C1      19.321797   18.957374   20.748718 C.3        1 MOL1         0.0314
       6    H4      19.465848   17.925587   20.416947 H          1 MOL1         0.0999
       7    H5      18.506321   18.972931   21.476451 H          1 MOL1         0.0999
       8    C2      20.615438   19.474703   21.406609 C.3        1 MOL1        -0.1308
       9    H6      21.417841   19.492899   20.657145 H          1 MOL1         0.1025
      10    H7      20.471279   20.511561   21.738319 H          1 MOL1         0.1025
      11    C3      21.064778   18.604897   22.603913 C.3        1 MOL1        -0.1243
      12    H8      22.029790   18.978512   22.974246 H          1 MOL1         0.1025
      13    H9      21.241712   17.573767   22.266798 H          1 MOL1         0.1025
      14    C4      20.045235   18.603451   23.766018 C.3        1 MOL1        -0.2258
      15    H10     19.845901   19.623990   24.117999 H          1 MOL1         0.1036
      16    H11     20.431139   18.025700   24.615894 H          1 MOL1         0.1036
      17    H12     19.091347   18.152069   23.465282 H          1 MOL1         0.1036
@<TRIPOS>BOND
    1     1     2    1
    2     1     3    1
    3     1     4    1
    4     1     5    1
    5     5     6    1
    6     5     7    1
    7     5     8    1
    8     8     9    1
    9     8    10    1
   10     8    11    1
   11    11    12    1
   12    11    13    1
   13    11    14    1
   14    14    15    1
   15    14    16    1
   16    14    17    1
@<TRIPOS>SUBSTRUCTURE
       1 MOL1            1 RESIDUE      1      MOL     
@<SCITEGIC>MOL_PROPERTY
VConf Rank
SciTegic.value.IntegerValue
248

@<SCITEGIC>MOL_PROPERTY
Conf_Id
SciTegic.value.IntegerValue
36

@<SCITEGIC>MOL_PROPERTY
Delta U+W
SciTegic.value.DoubleValue
0.275

@<SCITEGIC>MOL_PROPERTY
U+W
SciTegic.value.DoubleValue
-15.590

@<SCITEGIC>MOL_PROPERTY
Grad RMS
SciTegic.value.DoubleValue
0.000000

@<SCITEGIC>MOL_PROPERTY
U
SciTegic.value.DoubleValue
45.174

@<SCITEGIC>MOL_PROPERTY
W
SciTegic.value.DoubleValue
-60.765

@<SCITEGIC>MOL_PROPERTY
W(PB)
SciTegic.value.DoubleValue
-62.518

@<SCITEGIC>MOL_PROPERTY
W(SA)
SciTegic.value.DoubleValue
1.754

@<SCITEGIC>MOL_PROPERTY
Valence
SciTegic.value.DoubleValue
1.161

@<SCITEGIC>MOL_PROPERTY
Coulomb
SciTegic.value.DoubleValue
43.789

@<SCITEGIC>MOL_PROPERTY
VdW
SciTegic.value.DoubleValue
0.224

@<SCITEGIC>MOL_PROPERTY
VdW6
SciTegic.value.DoubleValue
-2.897

@<SCITEGIC>MOL_PROPERTY
VdW12
SciTegic.value.DoubleValue
3.121

@<SCITEGIC>MOL_PROPERTY
Bond
SciTegic.value.DoubleValue
0.100

@<SCITEGIC>MOL_PROPERTY
Angle
SciTegic.value.DoubleValue
0.500

@<SCITEGIC>MOL_PROPERTY
Pdih
SciTegic.value.DoubleValue
0.561

@<SCITEGIC>MOL_PROPERTY
Idih
SciTegic.value.DoubleValue
0.000

@<SCITEGIC>MOL_PROPERTY
Tether
SciTegic.value.DoubleValue
0.000

@<TRIPOS>MOLECULE
guest-1_confgen4.mol2 : confsearch ligand conformer 249
          17          16           1
SMALL
USER_CHARGES
 
@<TRIPOS>ATOM
       1    N1      21.499870   18.099861   22.080384 N.4        1 MOL1        -0.5891
       2    H1      21.434781   19.011514   22.540272 H          1 MOL1         0.3726
       3    H2      22.140620   18.207034   21.288277 H          1 MOL1         0.3726
       4    H3      21.949613   17.458778   22.741872 H          1 MOL1         0.3726
       5    C1      20.139643   17.593694   21.640375 C.3        1 MOL1         0.0314
       6    H4      19.523483   17.433817   22.529245 H          1 MOL1         0.0999
       7    H5      20.299027   16.624011   21.160950 H          1 MOL1         0.0999
       8    C2      19.403722   18.526527   20.655562 C.3        1 MOL1        -0.1308
       9    H6      20.101335   18.888854   19.888892 H          1 MOL1         0.1025
      10    H7      18.654912   17.926306   20.121835 H          1 MOL1         0.1025
      11    C3      18.671137   19.717758   21.324138 C.3        1 MOL1        -0.1243
      12    H8      17.931179   19.339811   22.043610 H          1 MOL1         0.1025
      13    H9      18.098975   20.249926   20.551210 H          1 MOL1         0.1025
      14    C4      19.604838   20.728214   22.028455 C.3        1 MOL1        -0.2258
      15    H10     20.044049   20.303427   22.938579 H          1 MOL1         0.1036
      16    H11     19.041511   21.621208   22.329089 H          1 MOL1         0.1036
      17    H12     20.414503   21.053974   21.362515 H          1 MOL1         0.1036
@<TRIPOS>BOND
    1     1     2    1
    2     1     3    1
    3     1     4    1
    4     1     5    1
    5     5     6    1
    6     5     7    1
    7     5     8    1
    8     8     9    1
    9     8    10    1
   10     8    11    1
   11    11    12    1
   12    11    13    1
   13    11    14    1
   14    14    15    1
   15    14    16    1
   16    14    17    1
@<TRIPOS>SUBSTRUCTURE
       1 MOL1            1 RESIDUE      1      MOL     
@<SCITEGIC>MOL_PROPERTY
VConf Rank
SciTegic.value.IntegerValue
249

@<SCITEGIC>MOL_PROPERTY
Conf_Id
SciTegic.value.IntegerValue
19

@<SCITEGIC>MOL_PROPERTY
Delta U+W
SciTegic.value.DoubleValue
2.662

@<SCITEGIC>MOL_PROPERTY
U+W
SciTegic.value.DoubleValue
-13.203

@<SCITEGIC>MOL_PROPERTY
Grad RMS
SciTegic.value.DoubleValue
0.000000

@<SCITEGIC>MOL_PROPERTY
U
SciTegic.value.DoubleValue
47.423

@<SCITEGIC>MOL_PROPERTY
W
SciTegic.value.DoubleValue
-60.626

@<SCITEGIC>MOL_PROPERTY
W(PB)
SciTegic.value.DoubleValue
-62.328

@<SCITEGIC>MOL_PROPERTY
W(SA)
SciTegic.value.DoubleValue
1.702

@<SCITEGIC>MOL_PROPERTY
Valence
SciTegic.value.DoubleValue
2.414

@<SCITEGIC>MOL_PROPERTY
Coulomb
SciTegic.value.DoubleValue
44.831

@<SCITEGIC>MOL_PROPERTY
VdW
SciTegic.value.DoubleValue
0.178

@<SCITEGIC>MOL_PROPERTY
VdW6
SciTegic.value.DoubleValue
-3.743

@<SCITEGIC>MOL_PROPERTY
VdW12
SciTegic.value.DoubleValue
3.921

@<SCITEGIC>MOL_PROPERTY
Bond
SciTegic.value.DoubleValue
0.138

@<SCITEGIC>MOL_PROPERTY
Angle
SciTegic.value.DoubleValue
0.941

@<SCITEGIC>MOL_PROPERTY
Pdih
SciTegic.value.DoubleValue
1.335

@<SCITEGIC>MOL_PROPERTY
Idih
SciTegic.value.DoubleValue
0.000

@<SCITEGIC>MOL_PROPERTY
Tether
SciTegic.value.DoubleValue
0.000

@<TRIPOS>MOLECULE
guest-1_confgen4.mol2 : confsearch ligand conformer 250
          17          16           1
SMALL
USER_CHARGES
 
@<TRIPOS>ATOM
       1    N1      19.487015   20.390327   22.839193 N.4        1 MOL1        -0.5891
       2    H1      19.765554   20.857886   23.707887 H          1 MOL1         0.3726
       3    H2      18.536777   20.706381   22.623235 H          1 MOL1         0.3726
       4    H3      20.097266   20.742873   22.097473 H          1 MOL1         0.3726
       5    C1      19.564691   18.880644   22.961110 C.3        1 MOL1         0.0314
       6    H4      18.886663   18.589674   23.768049 H          1 MOL1         0.0999
       7    H5      20.580626   18.607234   23.258473 H          1 MOL1         0.0999
       8    C2      19.173652   18.119489   21.676842 C.3        1 MOL1        -0.1308
       9    H6      18.895612   17.097015   21.965090 H          1 MOL1         0.1025
      10    H7      18.271289   18.564183   21.236708 H          1 MOL1         0.1025
      11    C3      20.300687   18.025937   20.616775 C.3        1 MOL1        -0.1243
      12    H8      19.953178   17.379827   19.798380 H          1 MOL1         0.1025
      13    H9      21.175615   17.522018   21.051041 H          1 MOL1         0.1025
      14    C4      20.732276   19.385325   20.021228 C.3        1 MOL1        -0.2258
      15    H10     19.865985   19.956788   19.663288 H          1 MOL1         0.1036
      16    H11     21.404679   19.230397   19.167396 H          1 MOL1         0.1036
      17    H12     21.277645   19.990848   20.754436 H          1 MOL1         0.1036
@<TRIPOS>BOND
    1     1     2    1
    2     1     3    1
    3     1     4    1
    4     1     5    1
    5     5     6    1
    6     5     7    1
    7     5     8    1
    8     8     9    1
    9     8    10    1
   10     8    11    1
   11    11    12    1
   12    11    13    1
   13    11    14    1
   14    14    15    1
   15    14    16    1
   16    14    17    1
@<TRIPOS>SUBSTRUCTURE
       1 MOL1            1 RESIDUE      1      MOL     
@<SCITEGIC>MOL_PROPERTY
VConf Rank
SciTegic.value.IntegerValue
250

@<SCITEGIC>MOL_PROPERTY
Conf_Id
SciTegic.value.IntegerValue
44

@<SCITEGIC>MOL_PROPERTY
Delta U+W
SciTegic.value.DoubleValue
2.712

@<SCITEGIC>MOL_PROPERTY
U+W
SciTegic.value.DoubleValue
-13.153

@<SCITEGIC>MOL_PROPERTY
Grad RMS
SciTegic.value.DoubleValue
0.000000

@<SCITEGIC>MOL_PROPERTY
U
SciTegic.value.DoubleValue
47.423

@<SCITEGIC>MOL_PROPERTY
W
SciTegic.value.DoubleValue
-60.576

@<SCITEGIC>MOL_PROPERTY
W(PB)
SciTegic.value.DoubleValue
-62.262

@<SCITEGIC>MOL_PROPERTY
W(SA)
SciTegic.value.DoubleValue
1.687

@<SCITEGIC>MOL_PROPERTY
Valence
SciTegic.value.DoubleValue
2.414

@<SCITEGIC>MOL_PROPERTY
Coulomb
SciTegic.value.DoubleValue
44.831

@<SCITEGIC>MOL_PROPERTY
VdW
SciTegic.value.DoubleValue
0.178

@<SCITEGIC>MOL_PROPERTY
VdW6
SciTegic.value.DoubleValue
-3.743

@<SCITEGIC>MOL_PROPERTY
VdW12
SciTegic.value.DoubleValue
3.922

@<SCITEGIC>MOL_PROPERTY
Bond
SciTegic.value.DoubleValue
0.138

@<SCITEGIC>MOL_PROPERTY
Angle
SciTegic.value.DoubleValue
0.941

@<SCITEGIC>MOL_PROPERTY
Pdih
SciTegic.value.DoubleValue
1.335

@<SCITEGIC>MOL_PROPERTY
Idih
SciTegic.value.DoubleValue
0.000

@<SCITEGIC>MOL_PROPERTY
Tether
SciTegic.value.DoubleValue
0.000

@<TRIPOS>MOLECULE
guest-1_confgen4.mol2 : confsearch ligand conformer 251
          17          16           1
SMALL
USER_CHARGES
 
@<TRIPOS>ATOM
       1    N1      18.579794   20.338804   22.279502 N.4        1 MOL1        -0.5891
       2    H1      18.845067   19.740172   23.066723 H          1 MOL1         0.3726
       3    H2      17.628035   20.076086   22.006531 H          1 MOL1         0.3726
       4    H3      18.532895   21.298672   22.636043 H          1 MOL1         0.3726
       5    C1      19.554673   20.213112   21.124656 C.3        1 MOL1         0.0314
       6    H4      20.538848   20.535185   21.474618 H          1 MOL1         0.0999
       7    H5      19.232472   20.903406   20.340297 H          1 MOL1         0.0999
       8    C2      19.650287   18.787577   20.542740 C.3        1 MOL1        -0.1308
       9    H6      18.666455   18.488956   20.157189 H          1 MOL1         0.1025
      10    H7      20.325109   18.806277   19.676674 H          1 MOL1         0.1025
      11    C3      20.149625   17.726247   21.554569 C.3        1 MOL1        -0.1243
      12    H8      20.171038   16.746206   21.057613 H          1 MOL1         0.1025
      13    H9      19.435735   17.629876   22.383863 H          1 MOL1         0.1025
      14    C4      21.557298   18.037032   22.112839 C.3        1 MOL1        -0.2258
      15    H10     22.290216   18.137117   21.301740 H          1 MOL1         0.1036
      16    H11     21.896946   17.228301   22.772810 H          1 MOL1         0.1036
      17    H12     21.564150   18.965736   22.697141 H          1 MOL1         0.1036
@<TRIPOS>BOND
    1     1     2    1
    2     1     3    1
    3     1     4    1
    4     1     5    1
    5     5     6    1
    6     5     7    1
    7     5     8    1
    8     8     9    1
    9     8    10    1
   10     8    11    1
   11    11    12    1
   12    11    13    1
   13    11    14    1
   14    14    15    1
   15    14    16    1
   16    14    17    1
@<TRIPOS>SUBSTRUCTURE
       1 MOL1            1 RESIDUE      1      MOL     
@<SCITEGIC>MOL_PROPERTY
VConf Rank
SciTegic.value.IntegerValue
251

@<SCITEGIC>MOL_PROPERTY
Conf_Id
SciTegic.value.IntegerValue
1

@<SCITEGIC>MOL_PROPERTY
Delta U+W
SciTegic.value.DoubleValue
0.685

@<SCITEGIC>MOL_PROPERTY
U+W
SciTegic.value.DoubleValue
-15.179

@<SCITEGIC>MOL_PROPERTY
Grad RMS
SciTegic.value.DoubleValue
0.000000

@<SCITEGIC>MOL_PROPERTY
U
SciTegic.value.DoubleValue
45.697

@<SCITEGIC>MOL_PROPERTY
W
SciTegic.value.DoubleValue
-60.876

@<SCITEGIC>MOL_PROPERTY
W(PB)
SciTegic.value.DoubleValue
-62.586

@<SCITEGIC>MOL_PROPERTY
W(SA)
SciTegic.value.DoubleValue
1.710

@<SCITEGIC>MOL_PROPERTY
Valence
SciTegic.value.DoubleValue
1.263

@<SCITEGIC>MOL_PROPERTY
Coulomb
SciTegic.value.DoubleValue
44.179

@<SCITEGIC>MOL_PROPERTY
VdW
SciTegic.value.DoubleValue
0.255

@<SCITEGIC>MOL_PROPERTY
VdW6
SciTegic.value.DoubleValue
-3.552

@<SCITEGIC>MOL_PROPERTY
VdW12
SciTegic.value.DoubleValue
3.807

@<SCITEGIC>MOL_PROPERTY
Bond
SciTegic.value.DoubleValue
0.125

@<SCITEGIC>MOL_PROPERTY
Angle
SciTegic.value.DoubleValue
0.616

@<SCITEGIC>MOL_PROPERTY
Pdih
SciTegic.value.DoubleValue
0.521

@<SCITEGIC>MOL_PROPERTY
Idih
SciTegic.value.DoubleValue
0.000

@<SCITEGIC>MOL_PROPERTY
Tether
SciTegic.value.DoubleValue
0.000

@<TRIPOS>MOLECULE
guest-1_confgen4.mol2 : confsearch ligand conformer 252
          17          16           1
SMALL
USER_CHARGES
 
@<TRIPOS>ATOM
       1    N1      20.723925   20.845250   21.486973 N.4        1 MOL1        -0.5891
       2    H1      20.002544   21.571684   21.451181 H          1 MOL1         0.3726
       3    H2      20.783769   20.431749   20.552155 H          1 MOL1         0.3726
       4    H3      21.615561   21.319627   21.661956 H          1 MOL1         0.3726
       5    C1      20.423430   19.801115   22.544962 C.3        1 MOL1         0.0314
       6    H4      20.411683   20.304390   23.515587 H          1 MOL1         0.0999
       7    H5      21.242434   19.077227   22.549765 H          1 MOL1         0.0999
       8    C2      19.082532   19.068195   22.333439 C.3        1 MOL1        -0.1308
       9    H6      18.920176   18.382807   23.175868 H          1 MOL1         0.1025
      10    H7      18.263024   19.798090   22.370982 H          1 MOL1         0.1025
      11    C3      19.001867   18.272560   21.006782 C.3        1 MOL1        -0.1243
      12    H8      19.070688   18.957625   20.150859 H          1 MOL1         0.1025
      13    H9      18.012254   17.799502   20.937590 H          1 MOL1         0.1025
      14    C4      20.089768   17.180648   20.888479 C.3        1 MOL1        -0.2258
      15    H10     19.954620   16.600805   19.966261 H          1 MOL1         0.1036
      16    H11     20.040757   16.481611   21.733471 H          1 MOL1         0.1036
      17    H12     21.096953   17.615154   20.861430 H          1 MOL1         0.1036
@<TRIPOS>BOND
    1     1     2    1
    2     1     3    1
    3     1     4    1
    4     1     5    1
    5     5     6    1
    6     5     7    1
    7     5     8    1
    8     8     9    1
    9     8    10    1
   10     8    11    1
   11    11    12    1
   12    11    13    1
   13    11    14    1
   14    14    15    1
   15    14    16    1
   16    14    17    1
@<TRIPOS>SUBSTRUCTURE
       1 MOL1            1 RESIDUE      1      MOL     
@<SCITEGIC>MOL_PROPERTY
VConf Rank
SciTegic.value.IntegerValue
252

@<SCITEGIC>MOL_PROPERTY
Conf_Id
SciTegic.value.IntegerValue
43

@<SCITEGIC>MOL_PROPERTY
Delta U+W
SciTegic.value.DoubleValue
0.642

@<SCITEGIC>MOL_PROPERTY
U+W
SciTegic.value.DoubleValue
-15.222

@<SCITEGIC>MOL_PROPERTY
Grad RMS
SciTegic.value.DoubleValue
0.000000

@<SCITEGIC>MOL_PROPERTY
U
SciTegic.value.DoubleValue
45.697

@<SCITEGIC>MOL_PROPERTY
W
SciTegic.value.DoubleValue
-60.919

@<SCITEGIC>MOL_PROPERTY
W(PB)
SciTegic.value.DoubleValue
-62.631

@<SCITEGIC>MOL_PROPERTY
W(SA)
SciTegic.value.DoubleValue
1.712

@<SCITEGIC>MOL_PROPERTY
Valence
SciTegic.value.DoubleValue
1.262

@<SCITEGIC>MOL_PROPERTY
Coulomb
SciTegic.value.DoubleValue
44.179

@<SCITEGIC>MOL_PROPERTY
VdW
SciTegic.value.DoubleValue
0.255

@<SCITEGIC>MOL_PROPERTY
VdW6
SciTegic.value.DoubleValue
-3.552

@<SCITEGIC>MOL_PROPERTY
VdW12
SciTegic.value.DoubleValue
3.807

@<SCITEGIC>MOL_PROPERTY
Bond
SciTegic.value.DoubleValue
0.125

@<SCITEGIC>MOL_PROPERTY
Angle
SciTegic.value.DoubleValue
0.616

@<SCITEGIC>MOL_PROPERTY
Pdih
SciTegic.value.DoubleValue
0.521

@<SCITEGIC>MOL_PROPERTY
Idih
SciTegic.value.DoubleValue
0.000

@<SCITEGIC>MOL_PROPERTY
Tether
SciTegic.value.DoubleValue
0.000

@<TRIPOS>MOLECULE
guest-1_confgen4.mol2 : confsearch ligand conformer 253
          17          16           1
SMALL
USER_CHARGES
 
@<TRIPOS>ATOM
       1    N1      21.175028   20.846393   20.218506 N.4        1 MOL1        -0.5891
       2    H1      21.158436   20.352606   19.320957 H          1 MOL1         0.3726
       3    H2      22.108171   20.710699   20.619165 H          1 MOL1         0.3726
       4    H3      21.085293   21.845768   20.008489 H          1 MOL1         0.3726
       5    C1      20.081114   20.366108   21.151264 C.3        1 MOL1         0.0314
       6    H4      19.118080   20.569357   20.675052 H          1 MOL1         0.0999
       7    H5      20.139322   20.954456   22.071037 H          1 MOL1         0.0999
       8    C2      20.185703   18.867502   21.488162 C.3        1 MOL1        -0.1308
       9    H6      20.142446   18.280729   20.560899 H          1 MOL1         0.1025
      10    H7      21.160101   18.664530   21.952210 H          1 MOL1         0.1025
      11    C3      19.054096   18.419960   22.439316 C.3        1 MOL1        -0.1243
      12    H8      18.078427   18.625934   21.976746 H          1 MOL1         0.1025
      13    H9      19.094878   19.009205   23.366383 H          1 MOL1         0.1025
      14    C4      19.152489   16.917612   22.781697 C.3        1 MOL1        -0.2258
      15    H10     18.340458   16.619888   23.457725 H          1 MOL1         0.1036
      16    H11     20.104391   16.686594   23.277399 H          1 MOL1         0.1036
      17    H12     19.079976   16.300304   21.876777 H          1 MOL1         0.1036
@<TRIPOS>BOND
    1     1     2    1
    2     1     3    1
    3     1     4    1
    4     1     5    1
    5     5     6    1
    6     5     7    1
    7     5     8    1
    8     8     9    1
    9     8    10    1
   10     8    11    1
   11    11    12    1
   12    11    13    1
   13    11    14    1
   14    14    15    1
   15    14    16    1
   16    14    17    1
@<TRIPOS>SUBSTRUCTURE
       1 MOL1            1 RESIDUE      1      MOL     
@<SCITEGIC>MOL_PROPERTY
VConf Rank
SciTegic.value.IntegerValue
253

@<SCITEGIC>MOL_PROPERTY
Conf_Id
SciTegic.value.IntegerValue
7

@<SCITEGIC>MOL_PROPERTY
Delta U+W
SciTegic.value.DoubleValue
0.000

@<SCITEGIC>MOL_PROPERTY
U+W
SciTegic.value.DoubleValue
-15.865

@<SCITEGIC>MOL_PROPERTY
Grad RMS
SciTegic.value.DoubleValue
0.000000

@<SCITEGIC>MOL_PROPERTY
U
SciTegic.value.DoubleValue
44.664

@<SCITEGIC>MOL_PROPERTY
W
SciTegic.value.DoubleValue
-60.529

@<SCITEGIC>MOL_PROPERTY
W(PB)
SciTegic.value.DoubleValue
-62.309

@<SCITEGIC>MOL_PROPERTY
W(SA)
SciTegic.value.DoubleValue
1.780

@<SCITEGIC>MOL_PROPERTY
Valence
SciTegic.value.DoubleValue
0.872

@<SCITEGIC>MOL_PROPERTY
Coulomb
SciTegic.value.DoubleValue
43.648

@<SCITEGIC>MOL_PROPERTY
VdW
SciTegic.value.DoubleValue
0.144

@<SCITEGIC>MOL_PROPERTY
VdW6
SciTegic.value.DoubleValue
-2.370

@<SCITEGIC>MOL_PROPERTY
VdW12
SciTegic.value.DoubleValue
2.515

@<SCITEGIC>MOL_PROPERTY
Bond
SciTegic.value.DoubleValue
0.080

@<SCITEGIC>MOL_PROPERTY
Angle
SciTegic.value.DoubleValue
0.376

@<SCITEGIC>MOL_PROPERTY
Pdih
SciTegic.value.DoubleValue
0.416

@<SCITEGIC>MOL_PROPERTY
Idih
SciTegic.value.DoubleValue
0.000

@<SCITEGIC>MOL_PROPERTY
Tether
SciTegic.value.DoubleValue
0.000

@<TRIPOS>MOLECULE
guest-1_confgen4.mol2 : confsearch ligand conformer 254
          17          16           1
SMALL
USER_CHARGES
 
@<TRIPOS>ATOM
       1    N1      21.229376   17.179969   22.301413 N.4        1 MOL1        -0.5891
       2    H1      21.728019   16.814346   21.484515 H          1 MOL1         0.3726
       3    H2      20.450350   16.541483   22.488763 H          1 MOL1         0.3726
       4    H3      21.870980   17.106344   23.097508 H          1 MOL1         0.3726
       5    C1      20.757145   18.604305   22.087819 C.3        1 MOL1         0.0314
       6    H4      21.637761   19.231390   21.924459 H          1 MOL1         0.0999
       7    H5      20.265261   18.936254   23.005805 H          1 MOL1         0.0999
       8    C2      19.789705   18.750730   20.897618 C.3        1 MOL1        -0.1308
       9    H6      20.279060   18.377510   19.988159 H          1 MOL1         0.1025
      10    H7      18.906016   18.119609   21.060925 H          1 MOL1         0.1025
      11    C3      19.346174   20.214169   20.666033 C.3        1 MOL1        -0.1243
      12    H8      18.725992   20.260026   19.759803 H          1 MOL1         0.1025
      13    H9      20.227119   20.841414   20.469354 H          1 MOL1         0.1025
      14    C4      18.547405   20.798600   21.853621 C.3        1 MOL1        -0.2258
      15    H10     17.663747   20.186027   22.075045 H          1 MOL1         0.1036
      16    H11     18.201102   21.814185   21.621958 H          1 MOL1         0.1036
      17    H12     19.160168   20.857411   22.762001 H          1 MOL1         0.1036
@<TRIPOS>BOND
    1     1     2    1
    2     1     3    1
    3     1     4    1
    4     1     5    1
    5     5     6    1
    6     5     7    1
    7     5     8    1
    8     8     9    1
    9     8    10    1
   10     8    11    1
   11    11    12    1
   12    11    13    1
   13    11    14    1
   14    14    15    1
   15    14    16    1
   16    14    17    1
@<TRIPOS>SUBSTRUCTURE
       1 MOL1            1 RESIDUE      1      MOL     
@<SCITEGIC>MOL_PROPERTY
VConf Rank
SciTegic.value.IntegerValue
254

@<SCITEGIC>MOL_PROPERTY
Conf_Id
SciTegic.value.IntegerValue
36

@<SCITEGIC>MOL_PROPERTY
Delta U+W
SciTegic.value.DoubleValue
0.275

@<SCITEGIC>MOL_PROPERTY
U+W
SciTegic.value.DoubleValue
-15.590

@<SCITEGIC>MOL_PROPERTY
Grad RMS
SciTegic.value.DoubleValue
0.000000

@<SCITEGIC>MOL_PROPERTY
U
SciTegic.value.DoubleValue
45.174

@<SCITEGIC>MOL_PROPERTY
W
SciTegic.value.DoubleValue
-60.765

@<SCITEGIC>MOL_PROPERTY
W(PB)
SciTegic.value.DoubleValue
-62.518

@<SCITEGIC>MOL_PROPERTY
W(SA)
SciTegic.value.DoubleValue
1.754

@<SCITEGIC>MOL_PROPERTY
Valence
SciTegic.value.DoubleValue
1.161

@<SCITEGIC>MOL_PROPERTY
Coulomb
SciTegic.value.DoubleValue
43.789

@<SCITEGIC>MOL_PROPERTY
VdW
SciTegic.value.DoubleValue
0.224

@<SCITEGIC>MOL_PROPERTY
VdW6
SciTegic.value.DoubleValue
-2.897

@<SCITEGIC>MOL_PROPERTY
VdW12
SciTegic.value.DoubleValue
3.121

@<SCITEGIC>MOL_PROPERTY
Bond
SciTegic.value.DoubleValue
0.100

@<SCITEGIC>MOL_PROPERTY
Angle
SciTegic.value.DoubleValue
0.500

@<SCITEGIC>MOL_PROPERTY
Pdih
SciTegic.value.DoubleValue
0.561

@<SCITEGIC>MOL_PROPERTY
Idih
SciTegic.value.DoubleValue
0.000

@<SCITEGIC>MOL_PROPERTY
Tether
SciTegic.value.DoubleValue
0.000

@<TRIPOS>MOLECULE
guest-1_confgen4.mol2 : confsearch ligand conformer 255
          17          16           1
SMALL
USER_CHARGES
 
@<TRIPOS>ATOM
       1    N1      20.014715   19.919248   23.207969 N.4        1 MOL1        -0.5891
       2    H1      19.738984   18.945180   23.356319 H          1 MOL1         0.3726
       3    H2      19.160739   20.483657   23.248566 H          1 MOL1         0.3726
       4    H3      20.591967   20.195551   24.008756 H          1 MOL1         0.3726
       5    C1      20.748887   20.101825   21.893554 C.3        1 MOL1         0.0314
       6    H4      21.681534   19.532744   21.933793 H          1 MOL1         0.0999
       7    H5      21.003359   21.162228   21.814018 H          1 MOL1         0.0999
       8    C2      19.936036   19.685200   20.649645 C.3        1 MOL1        -0.1308
       9    H6      18.906621   20.058512   20.731323 H          1 MOL1         0.1025
      10    H7      20.372274   20.192845   19.779105 H          1 MOL1         0.1025
      11    C3      19.935965   18.161973   20.362445 C.3        1 MOL1        -0.1243
      12    H8      20.968314   17.812665   20.220105 H          1 MOL1         0.1025
      13    H9      19.422579   17.990244   19.405924 H          1 MOL1         0.1025
      14    C4      19.248229   17.306530   21.450618 C.3        1 MOL1        -0.2258
      15    H10     19.840239   17.276605   22.372738 H          1 MOL1         0.1036
      16    H11     19.136434   16.270307   21.105801 H          1 MOL1         0.1036
      17    H12     18.246320   17.689403   21.684583 H          1 MOL1         0.1036
@<TRIPOS>BOND
    1     1     2    1
    2     1     3    1
    3     1     4    1
    4     1     5    1
    5     5     6    1
    6     5     7    1
    7     5     8    1
    8     8     9    1
    9     8    10    1
   10     8    11    1
   11    11    12    1
   12    11    13    1
   13    11    14    1
   14    14    15    1
   15    14    16    1
   16    14    17    1
@<TRIPOS>SUBSTRUCTURE
       1 MOL1            1 RESIDUE      1      MOL     
@<SCITEGIC>MOL_PROPERTY
VConf Rank
SciTegic.value.IntegerValue
255

@<SCITEGIC>MOL_PROPERTY
Conf_Id
SciTegic.value.IntegerValue
19

@<SCITEGIC>MOL_PROPERTY
Delta U+W
SciTegic.value.DoubleValue
2.662

@<SCITEGIC>MOL_PROPERTY
U+W
SciTegic.value.DoubleValue
-13.203

@<SCITEGIC>MOL_PROPERTY
Grad RMS
SciTegic.value.DoubleValue
0.000000

@<SCITEGIC>MOL_PROPERTY
U
SciTegic.value.DoubleValue
47.423

@<SCITEGIC>MOL_PROPERTY
W
SciTegic.value.DoubleValue
-60.626

@<SCITEGIC>MOL_PROPERTY
W(PB)
SciTegic.value.DoubleValue
-62.328

@<SCITEGIC>MOL_PROPERTY
W(SA)
SciTegic.value.DoubleValue
1.702

@<SCITEGIC>MOL_PROPERTY
Valence
SciTegic.value.DoubleValue
2.414

@<SCITEGIC>MOL_PROPERTY
Coulomb
SciTegic.value.DoubleValue
44.831

@<SCITEGIC>MOL_PROPERTY
VdW
SciTegic.value.DoubleValue
0.178

@<SCITEGIC>MOL_PROPERTY
VdW6
SciTegic.value.DoubleValue
-3.743

@<SCITEGIC>MOL_PROPERTY
VdW12
SciTegic.value.DoubleValue
3.921

@<SCITEGIC>MOL_PROPERTY
Bond
SciTegic.value.DoubleValue
0.138

@<SCITEGIC>MOL_PROPERTY
Angle
SciTegic.value.DoubleValue
0.941

@<SCITEGIC>MOL_PROPERTY
Pdih
SciTegic.value.DoubleValue
1.335

@<SCITEGIC>MOL_PROPERTY
Idih
SciTegic.value.DoubleValue
0.000

@<SCITEGIC>MOL_PROPERTY
Tether
SciTegic.value.DoubleValue
0.000

@<TRIPOS>MOLECULE
guest-1_confgen4.mol2 : confsearch ligand conformer 256
          17          16           1
SMALL
USER_CHARGES
 
@<TRIPOS>ATOM
       1    N1      19.831658   18.745672   23.431476 N.4        1 MOL1        -0.5891
       2    H1      19.569535   18.095557   24.179451 H          1 MOL1         0.3726
       3    H2      20.051666   19.640454   23.879185 H          1 MOL1         0.3726
       4    H3      20.699004   18.395241   23.017048 H          1 MOL1         0.3726
       5    C1      18.731859   18.888515   22.397030 C.3        1 MOL1         0.0314
       6    H4      17.848853   19.266860   22.919230 H          1 MOL1         0.0999
       7    H5      18.492719   17.896738   22.003977 H          1 MOL1         0.0999
       8    C2      19.075190   19.842588   21.233639 C.3        1 MOL1        -0.1308
       9    H6      18.130770   20.167674   20.777309 H          1 MOL1         0.1025
      10    H7      19.550859   20.752790   21.622228 H          1 MOL1         0.1025
      11    C3      19.949445   19.210442   20.120637 C.3        1 MOL1        -0.1243
      12    H8      20.043463   19.936044   19.300482 H          1 MOL1         0.1025
      13    H9      19.433479   18.337631   19.696372 H          1 MOL1         0.1025
      14    C4      21.367121   18.798483   20.578199 C.3        1 MOL1        -0.2258
      15    H10     21.875525   19.624155   21.092926 H          1 MOL1         0.1036
      16    H11     21.980277   18.518558   19.711689 H          1 MOL1         0.1036
      17    H12     21.337787   17.929446   21.245727 H          1 MOL1         0.1036
@<TRIPOS>BOND
    1     1     2    1
    2     1     3    1
    3     1     4    1
    4     1     5    1
    5     5     6    1
    6     5     7    1
    7     5     8    1
    8     8     9    1
    9     8    10    1
   10     8    11    1
   11    11    12    1
   12    11    13    1
   13    11    14    1
   14    14    15    1
   15    14    16    1
   16    14    17    1
@<TRIPOS>SUBSTRUCTURE
       1 MOL1            1 RESIDUE      1      MOL     
@<SCITEGIC>MOL_PROPERTY
VConf Rank
SciTegic.value.IntegerValue
256

@<SCITEGIC>MOL_PROPERTY
Conf_Id
SciTegic.value.IntegerValue
44

@<SCITEGIC>MOL_PROPERTY
Delta U+W
SciTegic.value.DoubleValue
2.712

@<SCITEGIC>MOL_PROPERTY
U+W
SciTegic.value.DoubleValue
-13.153

@<SCITEGIC>MOL_PROPERTY
Grad RMS
SciTegic.value.DoubleValue
0.000000

@<SCITEGIC>MOL_PROPERTY
U
SciTegic.value.DoubleValue
47.423

@<SCITEGIC>MOL_PROPERTY
W
SciTegic.value.DoubleValue
-60.576

@<SCITEGIC>MOL_PROPERTY
W(PB)
SciTegic.value.DoubleValue
-62.262

@<SCITEGIC>MOL_PROPERTY
W(SA)
SciTegic.value.DoubleValue
1.687

@<SCITEGIC>MOL_PROPERTY
Valence
SciTegic.value.DoubleValue
2.414

@<SCITEGIC>MOL_PROPERTY
Coulomb
SciTegic.value.DoubleValue
44.831

@<SCITEGIC>MOL_PROPERTY
VdW
SciTegic.value.DoubleValue
0.178

@<SCITEGIC>MOL_PROPERTY
VdW6
SciTegic.value.DoubleValue
-3.743

@<SCITEGIC>MOL_PROPERTY
VdW12
SciTegic.value.DoubleValue
3.922

@<SCITEGIC>MOL_PROPERTY
Bond
SciTegic.value.DoubleValue
0.138

@<SCITEGIC>MOL_PROPERTY
Angle
SciTegic.value.DoubleValue
0.941

@<SCITEGIC>MOL_PROPERTY
Pdih
SciTegic.value.DoubleValue
1.335

@<SCITEGIC>MOL_PROPERTY
Idih
SciTegic.value.DoubleValue
0.000

@<SCITEGIC>MOL_PROPERTY
Tether
SciTegic.value.DoubleValue
0.000

@<TRIPOS>MOLECULE
guest-1_confgen4.mol2 : confsearch ligand conformer 257
          17          16           1
SMALL
USER_CHARGES
 
@<TRIPOS>ATOM
       1    N1      19.862379   19.150407   19.616687 N.4        1 MOL1        -0.5891
       2    H1      19.433311   18.258843   19.880242 H          1 MOL1         0.3726
       3    H2      20.774324   18.936716   19.201872 H          1 MOL1         0.3726
       4    H3      19.283693   19.552485   18.872291 H          1 MOL1         0.3726
       5    C1      19.985932   20.086896   20.803101 C.3        1 MOL1         0.0314
       6    H4      18.980216   20.295807   21.176861 H          1 MOL1         0.0999
       7    H5      20.414275   21.026140   20.442711 H          1 MOL1         0.0999
       8    C2      20.860863   19.531912   21.946083 C.3        1 MOL1        -0.1308
       9    H6      21.879199   19.363700   21.571323 H          1 MOL1         0.1025
      10    H7      20.945577   20.298643   22.727589 H          1 MOL1         0.1025
      11    C3      20.321259   18.222520   22.573679 C.3        1 MOL1        -0.1243
      12    H8      21.013042   17.897432   23.363400 H          1 MOL1         0.1025
      13    H9      20.316937   17.418736   21.824969 H          1 MOL1         0.1025
      14    C4      18.906987   18.378699   23.178029 C.3        1 MOL1        -0.2258
      15    H10     18.885717   19.176922   23.931326 H          1 MOL1         0.1036
      16    H11     18.592630   17.447960   23.667798 H          1 MOL1         0.1036
      17    H12     18.162301   18.614944   22.407588 H          1 MOL1         0.1036
@<TRIPOS>BOND
    1     1     2    1
    2     1     3    1
    3     1     4    1
    4     1     5    1
    5     5     6    1
    6     5     7    1
    7     5     8    1
    8     8     9    1
    9     8    10    1
   10     8    11    1
   11    11    12    1
   12    11    13    1
   13    11    14    1
   14    14    15    1
   15    14    16    1
   16    14    17    1
@<TRIPOS>SUBSTRUCTURE
       1 MOL1            1 RESIDUE      1      MOL     
@<SCITEGIC>MOL_PROPERTY
VConf Rank
SciTegic.value.IntegerValue
257

@<SCITEGIC>MOL_PROPERTY
Conf_Id
SciTegic.value.IntegerValue
1

@<SCITEGIC>MOL_PROPERTY
Delta U+W
SciTegic.value.DoubleValue
0.685

@<SCITEGIC>MOL_PROPERTY
U+W
SciTegic.value.DoubleValue
-15.179

@<SCITEGIC>MOL_PROPERTY
Grad RMS
SciTegic.value.DoubleValue
0.000000

@<SCITEGIC>MOL_PROPERTY
U
SciTegic.value.DoubleValue
45.697

@<SCITEGIC>MOL_PROPERTY
W
SciTegic.value.DoubleValue
-60.876

@<SCITEGIC>MOL_PROPERTY
W(PB)
SciTegic.value.DoubleValue
-62.586

@<SCITEGIC>MOL_PROPERTY
W(SA)
SciTegic.value.DoubleValue
1.710

@<SCITEGIC>MOL_PROPERTY
Valence
SciTegic.value.DoubleValue
1.263

@<SCITEGIC>MOL_PROPERTY
Coulomb
SciTegic.value.DoubleValue
44.179

@<SCITEGIC>MOL_PROPERTY
VdW
SciTegic.value.DoubleValue
0.255

@<SCITEGIC>MOL_PROPERTY
VdW6
SciTegic.value.DoubleValue
-3.552

@<SCITEGIC>MOL_PROPERTY
VdW12
SciTegic.value.DoubleValue
3.807

@<SCITEGIC>MOL_PROPERTY
Bond
SciTegic.value.DoubleValue
0.125

@<SCITEGIC>MOL_PROPERTY
Angle
SciTegic.value.DoubleValue
0.616

@<SCITEGIC>MOL_PROPERTY
Pdih
SciTegic.value.DoubleValue
0.521

@<SCITEGIC>MOL_PROPERTY
Idih
SciTegic.value.DoubleValue
0.000

@<SCITEGIC>MOL_PROPERTY
Tether
SciTegic.value.DoubleValue
0.000

@<TRIPOS>MOLECULE
guest-1_confgen4.mol2 : confsearch ligand conformer 258
          17          16           1
SMALL
USER_CHARGES
 
@<TRIPOS>ATOM
       1    N1      18.440620   18.779517   20.304124 N.4        1 MOL1        -0.5891
       2    H1      18.438975   17.833029   19.912289 H          1 MOL1         0.3726
       3    H2      19.175049   19.305460   19.821998 H          1 MOL1         0.3726
       4    H3      17.546511   19.209686   20.046845 H          1 MOL1         0.3726
       5    C1      18.650317   18.769731   21.806053 C.3        1 MOL1         0.0314
       6    H4      17.814460   18.226637   22.255418 H          1 MOL1         0.0999
       7    H5      18.611634   19.802860   22.160952 H          1 MOL1         0.0999
       8    C2      19.977888   18.118134   22.245253 C.3        1 MOL1        -0.1308
       9    H6      20.013089   18.097940   23.342594 H          1 MOL1         0.1025
      10    H7      19.989668   17.069484   21.919764 H          1 MOL1         0.1025
      11    C3      21.240534   18.837202   21.708387 C.3        1 MOL1        -0.1243
      12    H8      21.266756   18.785578   20.611436 H          1 MOL1         0.1025
      13    H9      22.131187   18.296864   22.058637 H          1 MOL1         0.1025
      14    C4      21.336811   20.311710   22.162650 C.3        1 MOL1        -0.2258
      15    H10     22.275998   20.761167   21.814966 H          1 MOL1         0.1036
      16    H11     21.313685   20.389653   23.257391 H          1 MOL1         0.1036
      17    H12     20.512805   20.913387   21.758985 H          1 MOL1         0.1036
@<TRIPOS>BOND
    1     1     2    1
    2     1     3    1
    3     1     4    1
    4     1     5    1
    5     5     6    1
    6     5     7    1
    7     5     8    1
    8     8     9    1
    9     8    10    1
   10     8    11    1
   11    11    12    1
   12    11    13    1
   13    11    14    1
   14    14    15    1
   15    14    16    1
   16    14    17    1
@<TRIPOS>SUBSTRUCTURE
       1 MOL1            1 RESIDUE      1      MOL     
@<SCITEGIC>MOL_PROPERTY
VConf Rank
SciTegic.value.IntegerValue
258

@<SCITEGIC>MOL_PROPERTY
Conf_Id
SciTegic.value.IntegerValue
43

@<SCITEGIC>MOL_PROPERTY
Delta U+W
SciTegic.value.DoubleValue
0.642

@<SCITEGIC>MOL_PROPERTY
U+W
SciTegic.value.DoubleValue
-15.222

@<SCITEGIC>MOL_PROPERTY
Grad RMS
SciTegic.value.DoubleValue
0.000000

@<SCITEGIC>MOL_PROPERTY
U
SciTegic.value.DoubleValue
45.697

@<SCITEGIC>MOL_PROPERTY
W
SciTegic.value.DoubleValue
-60.919

@<SCITEGIC>MOL_PROPERTY
W(PB)
SciTegic.value.DoubleValue
-62.631

@<SCITEGIC>MOL_PROPERTY
W(SA)
SciTegic.value.DoubleValue
1.712

@<SCITEGIC>MOL_PROPERTY
Valence
SciTegic.value.DoubleValue
1.262

@<SCITEGIC>MOL_PROPERTY
Coulomb
SciTegic.value.DoubleValue
44.179

@<SCITEGIC>MOL_PROPERTY
VdW
SciTegic.value.DoubleValue
0.255

@<SCITEGIC>MOL_PROPERTY
VdW6
SciTegic.value.DoubleValue
-3.552

@<SCITEGIC>MOL_PROPERTY
VdW12
SciTegic.value.DoubleValue
3.807

@<SCITEGIC>MOL_PROPERTY
Bond
SciTegic.value.DoubleValue
0.125

@<SCITEGIC>MOL_PROPERTY
Angle
SciTegic.value.DoubleValue
0.616

@<SCITEGIC>MOL_PROPERTY
Pdih
SciTegic.value.DoubleValue
0.521

@<SCITEGIC>MOL_PROPERTY
Idih
SciTegic.value.DoubleValue
0.000

@<SCITEGIC>MOL_PROPERTY
Tether
SciTegic.value.DoubleValue
0.000

@<TRIPOS>MOLECULE
guest-1_confgen4.mol2 : confsearch ligand conformer 259
          17          16           1
SMALL
USER_CHARGES
 
@<TRIPOS>ATOM
       1    N1      18.127862   18.512386   23.318103 N.4        1 MOL1        -0.5891
       2    H1      18.736120   18.430047   24.138432 H          1 MOL1         0.3726
       3    H2      17.925803   17.560726   22.996837 H          1 MOL1         0.3726
       4    H3      17.241081   18.909056   23.645490 H          1 MOL1         0.3726
       5    C1      18.755475   19.358466   22.228329 C.3        1 MOL1         0.0314
       6    H4      18.913812   20.363040   22.629931 H          1 MOL1         0.0999
       7    H5      18.042438   19.428277   21.402358 H          1 MOL1         0.0999
       8    C2      20.090546   18.790968   21.712779 C.3        1 MOL1        -0.1308
       9    H6      20.798921   18.707806   22.547812 H          1 MOL1         0.1025
      10    H7      19.930520   17.776330   21.324332 H          1 MOL1         0.1025
      11    C3      20.695284   19.681739   20.605377 C.3        1 MOL1        -0.1243
      12    H8      20.852614   20.698405   20.992629 H          1 MOL1         0.1025
      13    H9      19.985317   19.768010   19.770614 H          1 MOL1         0.1025
      14    C4      22.034845   19.118716   20.083327 C.3        1 MOL1        -0.2258
      15    H10     22.447646   19.765309   19.298114 H          1 MOL1         0.1036
      16    H11     21.903001   18.115339   19.657816 H          1 MOL1         0.1036
      17    H12     22.777123   19.053024   20.889500 H          1 MOL1         0.1036
@<TRIPOS>BOND
    1     1     2    1
    2     1     3    1
    3     1     4    1
    4     1     5    1
    5     5     6    1
    6     5     7    1
    7     5     8    1
    8     8     9    1
    9     8    10    1
   10     8    11    1
   11    11    12    1
   12    11    13    1
   13    11    14    1
   14    14    15    1
   15    14    16    1
   16    14    17    1
@<TRIPOS>SUBSTRUCTURE
       1 MOL1            1 RESIDUE      1      MOL     
@<SCITEGIC>MOL_PROPERTY
VConf Rank
SciTegic.value.IntegerValue
259

@<SCITEGIC>MOL_PROPERTY
Conf_Id
SciTegic.value.IntegerValue
7

@<SCITEGIC>MOL_PROPERTY
Delta U+W
SciTegic.value.DoubleValue
0.000

@<SCITEGIC>MOL_PROPERTY
U+W
SciTegic.value.DoubleValue
-15.865

@<SCITEGIC>MOL_PROPERTY
Grad RMS
SciTegic.value.DoubleValue
0.000000

@<SCITEGIC>MOL_PROPERTY
U
SciTegic.value.DoubleValue
44.664

@<SCITEGIC>MOL_PROPERTY
W
SciTegic.value.DoubleValue
-60.529

@<SCITEGIC>MOL_PROPERTY
W(PB)
SciTegic.value.DoubleValue
-62.309

@<SCITEGIC>MOL_PROPERTY
W(SA)
SciTegic.value.DoubleValue
1.780

@<SCITEGIC>MOL_PROPERTY
Valence
SciTegic.value.DoubleValue
0.872

@<SCITEGIC>MOL_PROPERTY
Coulomb
SciTegic.value.DoubleValue
43.648

@<SCITEGIC>MOL_PROPERTY
VdW
SciTegic.value.DoubleValue
0.144

@<SCITEGIC>MOL_PROPERTY
VdW6
SciTegic.value.DoubleValue
-2.370

@<SCITEGIC>MOL_PROPERTY
VdW12
SciTegic.value.DoubleValue
2.515

@<SCITEGIC>MOL_PROPERTY
Bond
SciTegic.value.DoubleValue
0.080

@<SCITEGIC>MOL_PROPERTY
Angle
SciTegic.value.DoubleValue
0.376

@<SCITEGIC>MOL_PROPERTY
Pdih
SciTegic.value.DoubleValue
0.416

@<SCITEGIC>MOL_PROPERTY
Idih
SciTegic.value.DoubleValue
0.000

@<SCITEGIC>MOL_PROPERTY
Tether
SciTegic.value.DoubleValue
0.000

@<TRIPOS>MOLECULE
guest-1_confgen4.mol2 : confsearch ligand conformer 260
          17          16           1
SMALL
USER_CHARGES
 
@<TRIPOS>ATOM
       1    N1      20.614202   21.329835   21.013663 N.4        1 MOL1        -0.5891
       2    H1      20.007396   22.001392   21.493709 H          1 MOL1         0.3726
       3    H2      20.318875   21.305312   20.032935 H          1 MOL1         0.3726
       4    H3      21.560883   21.722801   21.028399 H          1 MOL1         0.3726
       5    C1      20.563178   19.958064   21.656311 C.3        1 MOL1         0.0314
       6    H4      20.918072   20.053860   22.686011 H          1 MOL1         0.0999
       7    H5      21.254470   19.307429   21.114436 H          1 MOL1         0.0999
       8    C2      19.152919   19.337503   21.650724 C.3        1 MOL1        -0.1308
       9    H6      18.458642   20.017345   22.162262 H          1 MOL1         0.1025
      10    H7      18.795811   19.242844   20.616606 H          1 MOL1         0.1025
      11    C3      19.106549   17.955713   22.343915 C.3        1 MOL1        -0.1243
      12    H8      18.064560   17.607629   22.376734 H          1 MOL1         0.1025
      13    H9      19.432102   18.054615   23.389102 H          1 MOL1         0.1025
      14    C4      19.971141   16.891879   21.629286 C.3        1 MOL1        -0.2258
      15    H10     19.669792   16.777776   20.579860 H          1 MOL1         0.1036
      16    H11     19.860605   15.914854   22.117356 H          1 MOL1         0.1036
      17    H12     21.036182   17.154922   21.653490 H          1 MOL1         0.1036
@<TRIPOS>BOND
    1     1     2    1
    2     1     3    1
    3     1     4    1
    4     1     5    1
    5     5     6    1
    6     5     7    1
    7     5     8    1
    8     8     9    1
    9     8    10    1
   10     8    11    1
   11    11    12    1
   12    11    13    1
   13    11    14    1
   14    14    15    1
   15    14    16    1
   16    14    17    1
@<TRIPOS>SUBSTRUCTURE
       1 MOL1            1 RESIDUE      1      MOL     
@<SCITEGIC>MOL_PROPERTY
VConf Rank
SciTegic.value.IntegerValue
260

@<SCITEGIC>MOL_PROPERTY
Conf_Id
SciTegic.value.IntegerValue
36

@<SCITEGIC>MOL_PROPERTY
Delta U+W
SciTegic.value.DoubleValue
0.275

@<SCITEGIC>MOL_PROPERTY
U+W
SciTegic.value.DoubleValue
-15.590

@<SCITEGIC>MOL_PROPERTY
Grad RMS
SciTegic.value.DoubleValue
0.000000

@<SCITEGIC>MOL_PROPERTY
U
SciTegic.value.DoubleValue
45.174

@<SCITEGIC>MOL_PROPERTY
W
SciTegic.value.DoubleValue
-60.765

@<SCITEGIC>MOL_PROPERTY
W(PB)
SciTegic.value.DoubleValue
-62.518

@<SCITEGIC>MOL_PROPERTY
W(SA)
SciTegic.value.DoubleValue
1.754

@<SCITEGIC>MOL_PROPERTY
Valence
SciTegic.value.DoubleValue
1.161

@<SCITEGIC>MOL_PROPERTY
Coulomb
SciTegic.value.DoubleValue
43.789

@<SCITEGIC>MOL_PROPERTY
VdW
SciTegic.value.DoubleValue
0.224

@<SCITEGIC>MOL_PROPERTY
VdW6
SciTegic.value.DoubleValue
-2.897

@<SCITEGIC>MOL_PROPERTY
VdW12
SciTegic.value.DoubleValue
3.121

@<SCITEGIC>MOL_PROPERTY
Bond
SciTegic.value.DoubleValue
0.100

@<SCITEGIC>MOL_PROPERTY
Angle
SciTegic.value.DoubleValue
0.500

@<SCITEGIC>MOL_PROPERTY
Pdih
SciTegic.value.DoubleValue
0.561

@<SCITEGIC>MOL_PROPERTY
Idih
SciTegic.value.DoubleValue
0.000

@<SCITEGIC>MOL_PROPERTY
Tether
SciTegic.value.DoubleValue
0.000

@<TRIPOS>MOLECULE
guest-1_confgen4.mol2 : confsearch ligand conformer 261
          17          16           1
SMALL
USER_CHARGES
 
@<TRIPOS>ATOM
       1    N1      19.323560   17.330600   22.177886 N.4        1 MOL1        -0.5891
       2    H1      20.345046   17.379415   22.209958 H          1 MOL1         0.3726
       3    H2      19.073165   16.811373   21.331017 H          1 MOL1         0.3726
       4    H3      19.022729   16.761241   22.975478 H          1 MOL1         0.3726
       5    C1      18.693775   18.710061   22.199992 C.3        1 MOL1         0.0314
       6    H4      18.937756   19.188900   23.152089 H          1 MOL1         0.0999
       7    H5      17.610375   18.567628   22.161349 H          1 MOL1         0.0999
       8    C2      19.122921   19.622211   21.031476 C.3        1 MOL1        -0.1308
       9    H6      19.113251   19.056589   20.090357 H          1 MOL1         0.1025
      10    H7      18.360748   20.404881   20.920266 H          1 MOL1         0.1025
      11    C3      20.494344   20.317180   21.228764 C.3        1 MOL1        -0.1243
      12    H8      20.470169   20.930360   22.140601 H          1 MOL1         0.1025
      13    H9      20.650458   21.017255   20.395990 H          1 MOL1         0.1025
      14    C4      21.698051   19.349628   21.290532 C.3        1 MOL1        -0.2258
      15    H10     21.699338   18.767805   22.219594 H          1 MOL1         0.1036
      16    H11     22.640303   19.912186   21.261427 H          1 MOL1         0.1036
      17    H12     21.697209   18.657407   20.438486 H          1 MOL1         0.1036
@<TRIPOS>BOND
    1     1     2    1
    2     1     3    1
    3     1     4    1
    4     1     5    1
    5     5     6    1
    6     5     7    1
    7     5     8    1
    8     8     9    1
    9     8    10    1
   10     8    11    1
   11    11    12    1
   12    11    13    1
   13    11    14    1
   14    14    15    1
   15    14    16    1
   16    14    17    1
@<TRIPOS>SUBSTRUCTURE
       1 MOL1            1 RESIDUE      1      MOL     
@<SCITEGIC>MOL_PROPERTY
VConf Rank
SciTegic.value.IntegerValue
261

@<SCITEGIC>MOL_PROPERTY
Conf_Id
SciTegic.value.IntegerValue
19

@<SCITEGIC>MOL_PROPERTY
Delta U+W
SciTegic.value.DoubleValue
2.662

@<SCITEGIC>MOL_PROPERTY
U+W
SciTegic.value.DoubleValue
-13.203

@<SCITEGIC>MOL_PROPERTY
Grad RMS
SciTegic.value.DoubleValue
0.000000

@<SCITEGIC>MOL_PROPERTY
U
SciTegic.value.DoubleValue
47.423

@<SCITEGIC>MOL_PROPERTY
W
SciTegic.value.DoubleValue
-60.626

@<SCITEGIC>MOL_PROPERTY
W(PB)
SciTegic.value.DoubleValue
-62.328

@<SCITEGIC>MOL_PROPERTY
W(SA)
SciTegic.value.DoubleValue
1.702

@<SCITEGIC>MOL_PROPERTY
Valence
SciTegic.value.DoubleValue
2.414

@<SCITEGIC>MOL_PROPERTY
Coulomb
SciTegic.value.DoubleValue
44.831

@<SCITEGIC>MOL_PROPERTY
VdW
SciTegic.value.DoubleValue
0.178

@<SCITEGIC>MOL_PROPERTY
VdW6
SciTegic.value.DoubleValue
-3.743

@<SCITEGIC>MOL_PROPERTY
VdW12
SciTegic.value.DoubleValue
3.921

@<SCITEGIC>MOL_PROPERTY
Bond
SciTegic.value.DoubleValue
0.138

@<SCITEGIC>MOL_PROPERTY
Angle
SciTegic.value.DoubleValue
0.941

@<SCITEGIC>MOL_PROPERTY
Pdih
SciTegic.value.DoubleValue
1.335

@<SCITEGIC>MOL_PROPERTY
Idih
SciTegic.value.DoubleValue
0.000

@<SCITEGIC>MOL_PROPERTY
Tether
SciTegic.value.DoubleValue
0.000

@<TRIPOS>MOLECULE
guest-1_confgen4.mol2 : confsearch ligand conformer 262
          17          16           1
SMALL
USER_CHARGES
 
@<TRIPOS>ATOM
       1    N1      20.743602   18.054636   20.297982 N.4        1 MOL1        -0.5891
       2    H1      20.754679   17.755299   19.317626 H          1 MOL1         0.3726
       3    H2      21.418195   17.466035   20.795931 H          1 MOL1         0.3726
       4    H3      21.102223   19.012493   20.325281 H          1 MOL1         0.3726
       5    C1      19.356064   17.956338   20.902229 C.3        1 MOL1         0.0314
       6    H4      19.051575   16.908328   20.835168 H          1 MOL1         0.0999
       7    H5      18.668014   18.547688   20.292152 H          1 MOL1         0.0999
       8    C2      19.271557   18.411215   22.374492 C.3        1 MOL1        -0.1308
       9    H6      18.372680   17.958559   22.813774 H          1 MOL1         0.1025
      10    H7      20.120297   18.006876   22.941835 H          1 MOL1         0.1025
      11    C3      19.175564   19.946095   22.568485 C.3        1 MOL1        -0.1243
      12    H8      19.014479   20.150494   23.636316 H          1 MOL1         0.1025
      13    H9      18.286471   20.329465   22.048328 H          1 MOL1         0.1025
      14    C4      20.423501   20.728672   22.100397 C.3        1 MOL1        -0.2258
      15    H10     21.342070   20.308108   22.529943 H          1 MOL1         0.1036
      16    H11     20.356762   21.777114   22.418943 H          1 MOL1         0.1036
      17    H12     20.511481   20.729433   21.007722 H          1 MOL1         0.1036
@<TRIPOS>BOND
    1     1     2    1
    2     1     3    1
    3     1     4    1
    4     1     5    1
    5     5     6    1
    6     5     7    1
    7     5     8    1
    8     8     9    1
    9     8    10    1
   10     8    11    1
   11    11    12    1
   12    11    13    1
   13    11    14    1
   14    14    15    1
   15    14    16    1
   16    14    17    1
@<TRIPOS>SUBSTRUCTURE
       1 MOL1            1 RESIDUE      1      MOL     
@<SCITEGIC>MOL_PROPERTY
VConf Rank
SciTegic.value.IntegerValue
262

@<SCITEGIC>MOL_PROPERTY
Conf_Id
SciTegic.value.IntegerValue
44

@<SCITEGIC>MOL_PROPERTY
Delta U+W
SciTegic.value.DoubleValue
2.712

@<SCITEGIC>MOL_PROPERTY
U+W
SciTegic.value.DoubleValue
-13.153

@<SCITEGIC>MOL_PROPERTY
Grad RMS
SciTegic.value.DoubleValue
0.000000

@<SCITEGIC>MOL_PROPERTY
U
SciTegic.value.DoubleValue
47.423

@<SCITEGIC>MOL_PROPERTY
W
SciTegic.value.DoubleValue
-60.576

@<SCITEGIC>MOL_PROPERTY
W(PB)
SciTegic.value.DoubleValue
-62.262

@<SCITEGIC>MOL_PROPERTY
W(SA)
SciTegic.value.DoubleValue
1.687

@<SCITEGIC>MOL_PROPERTY
Valence
SciTegic.value.DoubleValue
2.414

@<SCITEGIC>MOL_PROPERTY
Coulomb
SciTegic.value.DoubleValue
44.831

@<SCITEGIC>MOL_PROPERTY
VdW
SciTegic.value.DoubleValue
0.178

@<SCITEGIC>MOL_PROPERTY
VdW6
SciTegic.value.DoubleValue
-3.743

@<SCITEGIC>MOL_PROPERTY
VdW12
SciTegic.value.DoubleValue
3.922

@<SCITEGIC>MOL_PROPERTY
Bond
SciTegic.value.DoubleValue
0.138

@<SCITEGIC>MOL_PROPERTY
Angle
SciTegic.value.DoubleValue
0.941

@<SCITEGIC>MOL_PROPERTY
Pdih
SciTegic.value.DoubleValue
1.335

@<SCITEGIC>MOL_PROPERTY
Idih
SciTegic.value.DoubleValue
0.000

@<SCITEGIC>MOL_PROPERTY
Tether
SciTegic.value.DoubleValue
0.000

@<TRIPOS>MOLECULE
guest-1_confgen4.mol2 : confsearch ligand conformer 263
          17          16           1
SMALL
USER_CHARGES
 
@<TRIPOS>ATOM
       1    N1      18.660034   17.525515   21.331621 N.4        1 MOL1        -0.5891
       2    H1      18.187364   18.207749   21.931275 H          1 MOL1         0.3726
       3    H2      18.905358   16.723710   21.920097 H          1 MOL1         0.3726
       4    H3      17.968107   17.194859   20.651494 H          1 MOL1         0.3726
       5    C1      19.877573   18.122599   20.652689 C.3        1 MOL1         0.0314
       6    H4      19.542715   18.949561   20.021177 H          1 MOL1         0.0999
       7    H5      20.307153   17.354498   20.003828 H          1 MOL1         0.0999
       8    C2      20.956298   18.622457   21.635753 C.3        1 MOL1        -0.1308
       9    H6      21.315223   17.776912   22.237399 H          1 MOL1         0.1025
      10    H7      21.821046   18.975640   21.058452 H          1 MOL1         0.1025
      11    C3      20.475081   19.755130   22.576517 C.3        1 MOL1        -0.1243
      12    H8      21.301101   20.034098   23.245676 H          1 MOL1         0.1025
      13    H9      19.668927   19.389019   23.226695 H          1 MOL1         0.1025
      14    C4      19.998915   21.013378   21.815021 C.3        1 MOL1        -0.2258
      15    H10     20.789006   21.399531   21.157975 H          1 MOL1         0.1036
      16    H11     19.730049   21.811068   22.519556 H          1 MOL1         0.1036
      17    H12     19.114691   20.803039   21.200323 H          1 MOL1         0.1036
@<TRIPOS>BOND
    1     1     2    1
    2     1     3    1
    3     1     4    1
    4     1     5    1
    5     5     6    1
    6     5     7    1
    7     5     8    1
    8     8     9    1
    9     8    10    1
   10     8    11    1
   11    11    12    1
   12    11    13    1
   13    11    14    1
   14    14    15    1
   15    14    16    1
   16    14    17    1
@<TRIPOS>SUBSTRUCTURE
       1 MOL1            1 RESIDUE      1      MOL     
@<SCITEGIC>MOL_PROPERTY
VConf Rank
SciTegic.value.IntegerValue
263

@<SCITEGIC>MOL_PROPERTY
Conf_Id
SciTegic.value.IntegerValue
1

@<SCITEGIC>MOL_PROPERTY
Delta U+W
SciTegic.value.DoubleValue
0.685

@<SCITEGIC>MOL_PROPERTY
U+W
SciTegic.value.DoubleValue
-15.179

@<SCITEGIC>MOL_PROPERTY
Grad RMS
SciTegic.value.DoubleValue
0.000000

@<SCITEGIC>MOL_PROPERTY
U
SciTegic.value.DoubleValue
45.697

@<SCITEGIC>MOL_PROPERTY
W
SciTegic.value.DoubleValue
-60.876

@<SCITEGIC>MOL_PROPERTY
W(PB)
SciTegic.value.DoubleValue
-62.586

@<SCITEGIC>MOL_PROPERTY
W(SA)
SciTegic.value.DoubleValue
1.710

@<SCITEGIC>MOL_PROPERTY
Valence
SciTegic.value.DoubleValue
1.263

@<SCITEGIC>MOL_PROPERTY
Coulomb
SciTegic.value.DoubleValue
44.179

@<SCITEGIC>MOL_PROPERTY
VdW
SciTegic.value.DoubleValue
0.255

@<SCITEGIC>MOL_PROPERTY
VdW6
SciTegic.value.DoubleValue
-3.552

@<SCITEGIC>MOL_PROPERTY
VdW12
SciTegic.value.DoubleValue
3.807

@<SCITEGIC>MOL_PROPERTY
Bond
SciTegic.value.DoubleValue
0.125

@<SCITEGIC>MOL_PROPERTY
Angle
SciTegic.value.DoubleValue
0.616

@<SCITEGIC>MOL_PROPERTY
Pdih
SciTegic.value.DoubleValue
0.521

@<SCITEGIC>MOL_PROPERTY
Idih
SciTegic.value.DoubleValue
0.000

@<SCITEGIC>MOL_PROPERTY
Tether
SciTegic.value.DoubleValue
0.000

@<TRIPOS>MOLECULE
guest-1_confgen4.mol2 : confsearch ligand conformer 264
          17          16           1
SMALL
USER_CHARGES
 
@<TRIPOS>ATOM
       1    N1      20.226629   20.588571   20.405411 N.4        1 MOL1        -0.5891
       2    H1      20.814341   20.340379   19.603930 H          1 MOL1         0.3726
       3    H2      20.847095   20.702884   21.211888 H          1 MOL1         0.3726
       4    H3      19.823585   21.509487   20.205070 H          1 MOL1         0.3726
       5    C1      19.154380   19.547908   20.664559 C.3        1 MOL1         0.0314
       6    H4      18.510442   19.506357   19.781861 H          1 MOL1         0.0999
       7    H5      18.548718   19.887481   21.508757 H          1 MOL1         0.0999
       8    C2      19.711389   18.139344   20.957149 C.3        1 MOL1        -0.1308
       9    H6      18.868496   17.444176   21.067043 H          1 MOL1         0.1025
      10    H7      20.283929   17.790404   20.087558 H          1 MOL1         0.1025
      11    C3      20.601719   18.064264   22.222548 C.3        1 MOL1        -0.1243
      12    H8      21.498416   18.684910   22.090688 H          1 MOL1         0.1025
      13    H9      20.961838   17.032673   22.341030 H          1 MOL1         0.1025
      14    C4      19.859918   18.488253   23.510866 C.3        1 MOL1        -0.2258
      15    H10     20.506476   18.357326   24.388242 H          1 MOL1         0.1036
      16    H11     18.958879   17.880574   23.665533 H          1 MOL1         0.1036
      17    H12     19.559737   19.543050   23.475609 H          1 MOL1         0.1036
@<TRIPOS>BOND
    1     1     2    1
    2     1     3    1
    3     1     4    1
    4     1     5    1
    5     5     6    1
    6     5     7    1
    7     5     8    1
    8     8     9    1
    9     8    10    1
   10     8    11    1
   11    11    12    1
   12    11    13    1
   13    11    14    1
   14    14    15    1
   15    14    16    1
   16    14    17    1
@<TRIPOS>SUBSTRUCTURE
       1 MOL1            1 RESIDUE      1      MOL     
@<SCITEGIC>MOL_PROPERTY
VConf Rank
SciTegic.value.IntegerValue
264

@<SCITEGIC>MOL_PROPERTY
Conf_Id
SciTegic.value.IntegerValue
43

@<SCITEGIC>MOL_PROPERTY
Delta U+W
SciTegic.value.DoubleValue
0.642

@<SCITEGIC>MOL_PROPERTY
U+W
SciTegic.value.DoubleValue
-15.222

@<SCITEGIC>MOL_PROPERTY
Grad RMS
SciTegic.value.DoubleValue
0.000000

@<SCITEGIC>MOL_PROPERTY
U
SciTegic.value.DoubleValue
45.697

@<SCITEGIC>MOL_PROPERTY
W
SciTegic.value.DoubleValue
-60.919

@<SCITEGIC>MOL_PROPERTY
W(PB)
SciTegic.value.DoubleValue
-62.631

@<SCITEGIC>MOL_PROPERTY
W(SA)
SciTegic.value.DoubleValue
1.712

@<SCITEGIC>MOL_PROPERTY
Valence
SciTegic.value.DoubleValue
1.262

@<SCITEGIC>MOL_PROPERTY
Coulomb
SciTegic.value.DoubleValue
44.179

@<SCITEGIC>MOL_PROPERTY
VdW
SciTegic.value.DoubleValue
0.255

@<SCITEGIC>MOL_PROPERTY
VdW6
SciTegic.value.DoubleValue
-3.552

@<SCITEGIC>MOL_PROPERTY
VdW12
SciTegic.value.DoubleValue
3.807

@<SCITEGIC>MOL_PROPERTY
Bond
SciTegic.value.DoubleValue
0.125

@<SCITEGIC>MOL_PROPERTY
Angle
SciTegic.value.DoubleValue
0.616

@<SCITEGIC>MOL_PROPERTY
Pdih
SciTegic.value.DoubleValue
0.521

@<SCITEGIC>MOL_PROPERTY
Idih
SciTegic.value.DoubleValue
0.000

@<SCITEGIC>MOL_PROPERTY
Tether
SciTegic.value.DoubleValue
0.000

@<TRIPOS>MOLECULE
guest-1_confgen4.mol2 : confsearch ligand conformer 265
          17          16           1
SMALL
USER_CHARGES
 
@<TRIPOS>ATOM
       1    N1      21.316871   20.911703   20.457023 N.4        1 MOL1        -0.5891
       2    H1      22.232511   20.660935   20.842270 H          1 MOL1         0.3726
       3    H2      20.963036   21.698145   21.010202 H          1 MOL1         0.3726
       4    H3      21.481280   21.266362   19.509344 H          1 MOL1         0.3726
       5    C1      20.358190   19.737704   20.460962 C.3        1 MOL1         0.0314
       6    H4      20.783350   18.952569   19.829832 H          1 MOL1         0.0999
       7    H5      19.418261   20.067893   20.010370 H          1 MOL1         0.0999
       8    C2      20.088423   19.179423   21.870149 C.3        1 MOL1        -0.1308
       9    H6      21.036412   18.863195   22.325458 H          1 MOL1         0.1025
      10    H7      19.675887   19.974631   22.505326 H          1 MOL1         0.1025
      11    C3      19.108389   17.986368   21.829230 C.3        1 MOL1        -0.1243
      12    H8      19.519271   17.191372   21.190887 H          1 MOL1         0.1025
      13    H9      18.160386   18.301459   21.370608 H          1 MOL1         0.1025
      14    C4      18.833036   17.420994   23.239368 C.3        1 MOL1        -0.2258
      15    H10     18.135303   16.575038   23.188621 H          1 MOL1         0.1036
      16    H11     18.389085   18.184324   23.891626 H          1 MOL1         0.1036
      17    H12     19.758716   17.065532   23.710505 H          1 MOL1         0.1036
@<TRIPOS>BOND
    1     1     2    1
    2     1     3    1
    3     1     4    1
    4     1     5    1
    5     5     6    1
    6     5     7    1
    7     5     8    1
    8     8     9    1
    9     8    10    1
   10     8    11    1
   11    11    12    1
   12    11    13    1
   13    11    14    1
   14    14    15    1
   15    14    16    1
   16    14    17    1
@<TRIPOS>SUBSTRUCTURE
       1 MOL1            1 RESIDUE      1      MOL     
@<SCITEGIC>MOL_PROPERTY
VConf Rank
SciTegic.value.IntegerValue
265

@<SCITEGIC>MOL_PROPERTY
Conf_Id
SciTegic.value.IntegerValue
7

@<SCITEGIC>MOL_PROPERTY
Delta U+W
SciTegic.value.DoubleValue
0.000

@<SCITEGIC>MOL_PROPERTY
U+W
SciTegic.value.DoubleValue
-15.865

@<SCITEGIC>MOL_PROPERTY
Grad RMS
SciTegic.value.DoubleValue
0.000000

@<SCITEGIC>MOL_PROPERTY
U
SciTegic.value.DoubleValue
44.664

@<SCITEGIC>MOL_PROPERTY
W
SciTegic.value.DoubleValue
-60.529

@<SCITEGIC>MOL_PROPERTY
W(PB)
SciTegic.value.DoubleValue
-62.309

@<SCITEGIC>MOL_PROPERTY
W(SA)
SciTegic.value.DoubleValue
1.780

@<SCITEGIC>MOL_PROPERTY
Valence
SciTegic.value.DoubleValue
0.872

@<SCITEGIC>MOL_PROPERTY
Coulomb
SciTegic.value.DoubleValue
43.648

@<SCITEGIC>MOL_PROPERTY
VdW
SciTegic.value.DoubleValue
0.144

@<SCITEGIC>MOL_PROPERTY
VdW6
SciTegic.value.DoubleValue
-2.370

@<SCITEGIC>MOL_PROPERTY
VdW12
SciTegic.value.DoubleValue
2.515

@<SCITEGIC>MOL_PROPERTY
Bond
SciTegic.value.DoubleValue
0.080

@<SCITEGIC>MOL_PROPERTY
Angle
SciTegic.value.DoubleValue
0.376

@<SCITEGIC>MOL_PROPERTY
Pdih
SciTegic.value.DoubleValue
0.416

@<SCITEGIC>MOL_PROPERTY
Idih
SciTegic.value.DoubleValue
0.000

@<SCITEGIC>MOL_PROPERTY
Tether
SciTegic.value.DoubleValue
0.000

@<TRIPOS>MOLECULE
guest-1_confgen4.mol2 : confsearch ligand conformer 266
          17          16           1
SMALL
USER_CHARGES
 
@<TRIPOS>ATOM
       1    N1      21.446101   20.938868   21.979339 N.4        1 MOL1        -0.5891
       2    H1      22.251208   20.601572   22.515699 H          1 MOL1         0.3726
       3    H2      20.860470   21.478844   22.623628 H          1 MOL1         0.3726
       4    H3      21.808878   21.599271   21.284282 H          1 MOL1         0.3726
       5    C1      20.679311   19.803211   21.331519 C.3        1 MOL1         0.0314
       6    H4      21.353318   19.292373   20.638577 H          1 MOL1         0.0999
       7    H5      19.859148   20.238008   20.754350 H          1 MOL1         0.0999
       8    C2      20.119212   18.791053   22.349253 C.3        1 MOL1        -0.1308
       9    H6      20.946130   18.390286   22.950476 H          1 MOL1         0.1025
      10    H7      19.443565   19.304460   23.046248 H          1 MOL1         0.1025
      11    C3      19.372969   17.616817   21.673756 C.3        1 MOL1        -0.1243
      12    H8      19.070980   16.894726   22.445357 H          1 MOL1         0.1025
      13    H9      20.057351   17.081314   21.000673 H          1 MOL1         0.1025
      14    C4      18.120390   18.068761   20.888421 C.3        1 MOL1        -0.2258
      15    H10     17.421881   18.612512   21.537687 H          1 MOL1         0.1036
      16    H11     17.589033   17.200134   20.478354 H          1 MOL1         0.1036
      17    H12     18.385437   18.721565   20.047180 H          1 MOL1         0.1036
@<TRIPOS>BOND
    1     1     2    1
    2     1     3    1
    3     1     4    1
    4     1     5    1
    5     5     6    1
    6     5     7    1
    7     5     8    1
    8     8     9    1
    9     8    10    1
   10     8    11    1
   11    11    12    1
   12    11    13    1
   13    11    14    1
   14    14    15    1
   15    14    16    1
   16    14    17    1
@<TRIPOS>SUBSTRUCTURE
       1 MOL1            1 RESIDUE      1      MOL     
@<SCITEGIC>MOL_PROPERTY
VConf Rank
SciTegic.value.IntegerValue
266

@<SCITEGIC>MOL_PROPERTY
Conf_Id
SciTegic.value.IntegerValue
36

@<SCITEGIC>MOL_PROPERTY
Delta U+W
SciTegic.value.DoubleValue
0.275

@<SCITEGIC>MOL_PROPERTY
U+W
SciTegic.value.DoubleValue
-15.590

@<SCITEGIC>MOL_PROPERTY
Grad RMS
SciTegic.value.DoubleValue
0.000000

@<SCITEGIC>MOL_PROPERTY
U
SciTegic.value.DoubleValue
45.174

@<SCITEGIC>MOL_PROPERTY
W
SciTegic.value.DoubleValue
-60.765

@<SCITEGIC>MOL_PROPERTY
W(PB)
SciTegic.value.DoubleValue
-62.518

@<SCITEGIC>MOL_PROPERTY
W(SA)
SciTegic.value.DoubleValue
1.754

@<SCITEGIC>MOL_PROPERTY
Valence
SciTegic.value.DoubleValue
1.161

@<SCITEGIC>MOL_PROPERTY
Coulomb
SciTegic.value.DoubleValue
43.789

@<SCITEGIC>MOL_PROPERTY
VdW
SciTegic.value.DoubleValue
0.224

@<SCITEGIC>MOL_PROPERTY
VdW6
SciTegic.value.DoubleValue
-2.897

@<SCITEGIC>MOL_PROPERTY
VdW12
SciTegic.value.DoubleValue
3.121

@<SCITEGIC>MOL_PROPERTY
Bond
SciTegic.value.DoubleValue
0.100

@<SCITEGIC>MOL_PROPERTY
Angle
SciTegic.value.DoubleValue
0.500

@<SCITEGIC>MOL_PROPERTY
Pdih
SciTegic.value.DoubleValue
0.561

@<SCITEGIC>MOL_PROPERTY
Idih
SciTegic.value.DoubleValue
0.000

@<SCITEGIC>MOL_PROPERTY
Tether
SciTegic.value.DoubleValue
0.000

@<TRIPOS>MOLECULE
guest-1_confgen4.mol2 : confsearch ligand conformer 267
          17          16           1
SMALL
USER_CHARGES
 
@<TRIPOS>ATOM
       1    N1      21.621871   19.320529   20.887304 N.4        1 MOL1        -0.5891
       2    H1      20.989331   20.109419   20.731132 H          1 MOL1         0.3726
       3    H2      21.666982   18.792376   20.010663 H          1 MOL1         0.3726
       4    H3      22.556521   19.709500   21.048406 H          1 MOL1         0.3726
       5    C1      21.164423   18.453625   22.044563 C.3        1 MOL1         0.0314
       6    H4      21.201073   19.048686   22.961003 H          1 MOL1         0.0999
       7    H5      21.888834   17.640285   22.140712 H          1 MOL1         0.0999
       8    C2      19.754062   17.852475   21.868171 C.3        1 MOL1        -0.1308
       9    H6      19.634515   17.468560   20.846385 H          1 MOL1         0.1025
      10    H7      19.677377   16.978828   22.529010 H          1 MOL1         0.1025
      11    C3      18.594659   18.819291   22.219960 C.3        1 MOL1        -0.1243
      12    H8      18.690653   19.146798   23.264731 H          1 MOL1         0.1025
      13    H9      17.649391   18.261518   22.162109 H          1 MOL1         0.1025
      14    C4      18.492971   20.056800   21.299573 C.3        1 MOL1        -0.2258
      15    H10     19.318542   20.756653   21.473680 H          1 MOL1         0.1036
      16    H11     17.561056   20.602383   21.497136 H          1 MOL1         0.1036
      17    H12     18.490938   19.766992   20.240724 H          1 MOL1         0.1036
@<TRIPOS>BOND
    1     1     2    1
    2     1     3    1
    3     1     4    1
    4     1     5    1
    5     5     6    1
    6     5     7    1
    7     5     8    1
    8     8     9    1
    9     8    10    1
   10     8    11    1
   11    11    12    1
   12    11    13    1
   13    11    14    1
   14    14    15    1
   15    14    16    1
   16    14    17    1
@<TRIPOS>SUBSTRUCTURE
       1 MOL1            1 RESIDUE      1      MOL     
@<SCITEGIC>MOL_PROPERTY
VConf Rank
SciTegic.value.IntegerValue
267

@<SCITEGIC>MOL_PROPERTY
Conf_Id
SciTegic.value.IntegerValue
19

@<SCITEGIC>MOL_PROPERTY
Delta U+W
SciTegic.value.DoubleValue
2.662

@<SCITEGIC>MOL_PROPERTY
U+W
SciTegic.value.DoubleValue
-13.203

@<SCITEGIC>MOL_PROPERTY
Grad RMS
SciTegic.value.DoubleValue
0.000000

@<SCITEGIC>MOL_PROPERTY
U
SciTegic.value.DoubleValue
47.423

@<SCITEGIC>MOL_PROPERTY
W
SciTegic.value.DoubleValue
-60.626

@<SCITEGIC>MOL_PROPERTY
W(PB)
SciTegic.value.DoubleValue
-62.328

@<SCITEGIC>MOL_PROPERTY
W(SA)
SciTegic.value.DoubleValue
1.702

@<SCITEGIC>MOL_PROPERTY
Valence
SciTegic.value.DoubleValue
2.414

@<SCITEGIC>MOL_PROPERTY
Coulomb
SciTegic.value.DoubleValue
44.831

@<SCITEGIC>MOL_PROPERTY
VdW
SciTegic.value.DoubleValue
0.178

@<SCITEGIC>MOL_PROPERTY
VdW6
SciTegic.value.DoubleValue
-3.743

@<SCITEGIC>MOL_PROPERTY
VdW12
SciTegic.value.DoubleValue
3.921

@<SCITEGIC>MOL_PROPERTY
Bond
SciTegic.value.DoubleValue
0.138

@<SCITEGIC>MOL_PROPERTY
Angle
SciTegic.value.DoubleValue
0.941

@<SCITEGIC>MOL_PROPERTY
Pdih
SciTegic.value.DoubleValue
1.335

@<SCITEGIC>MOL_PROPERTY
Idih
SciTegic.value.DoubleValue
0.000

@<SCITEGIC>MOL_PROPERTY
Tether
SciTegic.value.DoubleValue
0.000

@<TRIPOS>MOLECULE
guest-1_confgen4.mol2 : confsearch ligand conformer 268
          17          16           1
SMALL
USER_CHARGES
 
@<TRIPOS>ATOM
       1    N1      19.560726   20.539863   22.680881 N.4        1 MOL1        -0.5891
       2    H1      19.328433   20.876714   23.620772 H          1 MOL1         0.3726
       3    H2      19.463385   21.338449   22.046636 H          1 MOL1         0.3726
       4    H3      20.550541   20.280935   22.689005 H          1 MOL1         0.3726
       5    C1      18.679137   19.378394   22.263952 C.3        1 MOL1         0.0314
       6    H4      17.646897   19.738622   22.279862 H          1 MOL1         0.0999
       7    H5      18.771720   18.585447   23.010922 H          1 MOL1         0.0999
       8    C2      18.993363   18.814705   20.862121 C.3        1 MOL1        -0.1308
       9    H6      18.103592   18.275487   20.510841 H          1 MOL1         0.1025
      10    H7      19.146438   19.638030   20.151886 H          1 MOL1         0.1025
      11    C3      20.193147   17.834271   20.817722 C.3        1 MOL1        -0.1243
      12    H8      20.260985   17.416168   19.803534 H          1 MOL1         0.1025
      13    H9      19.999419   16.982684   21.485023 H          1 MOL1         0.1025
      14    C4      21.553680   18.472505   21.178950 C.3        1 MOL1        -0.2258
      15    H10     21.734488   19.383602   20.593833 H          1 MOL1         0.1036
      16    H11     22.371353   17.771884   20.965180 H          1 MOL1         0.1036
      17    H12     21.611908   18.719085   22.245481 H          1 MOL1         0.1036
@<TRIPOS>BOND
    1     1     2    1
    2     1     3    1
    3     1     4    1
    4     1     5    1
    5     5     6    1
    6     5     7    1
    7     5     8    1
    8     8     9    1
    9     8    10    1
   10     8    11    1
   11    11    12    1
   12    11    13    1
   13    11    14    1
   14    14    15    1
   15    14    16    1
   16    14    17    1
@<TRIPOS>SUBSTRUCTURE
       1 MOL1            1 RESIDUE      1      MOL     
@<SCITEGIC>MOL_PROPERTY
VConf Rank
SciTegic.value.IntegerValue
268

@<SCITEGIC>MOL_PROPERTY
Conf_Id
SciTegic.value.IntegerValue
44

@<SCITEGIC>MOL_PROPERTY
Delta U+W
SciTegic.value.DoubleValue
2.712

@<SCITEGIC>MOL_PROPERTY
U+W
SciTegic.value.DoubleValue
-13.153

@<SCITEGIC>MOL_PROPERTY
Grad RMS
SciTegic.value.DoubleValue
0.000000

@<SCITEGIC>MOL_PROPERTY
U
SciTegic.value.DoubleValue
47.423

@<SCITEGIC>MOL_PROPERTY
W
SciTegic.value.DoubleValue
-60.576

@<SCITEGIC>MOL_PROPERTY
W(PB)
SciTegic.value.DoubleValue
-62.262

@<SCITEGIC>MOL_PROPERTY
W(SA)
SciTegic.value.DoubleValue
1.687

@<SCITEGIC>MOL_PROPERTY
Valence
SciTegic.value.DoubleValue
2.414

@<SCITEGIC>MOL_PROPERTY
Coulomb
SciTegic.value.DoubleValue
44.831

@<SCITEGIC>MOL_PROPERTY
VdW
SciTegic.value.DoubleValue
0.178

@<SCITEGIC>MOL_PROPERTY
VdW6
SciTegic.value.DoubleValue
-3.743

@<SCITEGIC>MOL_PROPERTY
VdW12
SciTegic.value.DoubleValue
3.922

@<SCITEGIC>MOL_PROPERTY
Bond
SciTegic.value.DoubleValue
0.138

@<SCITEGIC>MOL_PROPERTY
Angle
SciTegic.value.DoubleValue
0.941

@<SCITEGIC>MOL_PROPERTY
Pdih
SciTegic.value.DoubleValue
1.335

@<SCITEGIC>MOL_PROPERTY
Idih
SciTegic.value.DoubleValue
0.000

@<SCITEGIC>MOL_PROPERTY
Tether
SciTegic.value.DoubleValue
0.000

@<TRIPOS>MOLECULE
guest-1_confgen4.mol2 : confsearch ligand conformer 269
          17          16           1
SMALL
USER_CHARGES
 
@<TRIPOS>ATOM
       1    N1      21.079107   18.277545   23.020392 N.4        1 MOL1        -0.5891
       2    H1      21.547658   19.116378   22.666464 H          1 MOL1         0.3726
       3    H2      21.608431   17.468921   22.680799 H          1 MOL1         0.3726
       4    H3      21.175411   18.289061   24.040814 H          1 MOL1         0.3726
       5    C1      19.625475   18.222814   22.591651 C.3        1 MOL1         0.0314
       6    H4      19.115121   19.094213   23.009989 H          1 MOL1         0.0999
       7    H5      19.181452   17.326750   23.033749 H          1 MOL1         0.0999
       8    C2      19.428220   18.189043   21.061988 C.3        1 MOL1        -0.1308
       9    H6      19.909428   17.289249   20.656331 H          1 MOL1         0.1025
      10    H7      18.356157   18.084996   20.848307 H          1 MOL1         0.1025
      11    C3      19.974675   19.439246   20.328546 C.3        1 MOL1        -0.1243
      12    H8      19.803522   19.319384   19.249545 H          1 MOL1         0.1025
      13    H9      21.063550   19.506484   20.456940 H          1 MOL1         0.1025
      14    C4      19.312761   20.754714   20.798878 C.3        1 MOL1        -0.2258
      15    H10     18.222352   20.712504   20.679322 H          1 MOL1         0.1036
      16    H11     19.681456   21.603701   20.208748 H          1 MOL1         0.1036
      17    H12     19.533867   20.963760   21.853088 H          1 MOL1         0.1036
@<TRIPOS>BOND
    1     1     2    1
    2     1     3    1
    3     1     4    1
    4     1     5    1
    5     5     6    1
    6     5     7    1
    7     5     8    1
    8     8     9    1
    9     8    10    1
   10     8    11    1
   11    11    12    1
   12    11    13    1
   13    11    14    1
   14    14    15    1
   15    14    16    1
   16    14    17    1
@<TRIPOS>SUBSTRUCTURE
       1 MOL1            1 RESIDUE      1      MOL     
@<SCITEGIC>MOL_PROPERTY
VConf Rank
SciTegic.value.IntegerValue
269

@<SCITEGIC>MOL_PROPERTY
Conf_Id
SciTegic.value.IntegerValue
1

@<SCITEGIC>MOL_PROPERTY
Delta U+W
SciTegic.value.DoubleValue
0.685

@<SCITEGIC>MOL_PROPERTY
U+W
SciTegic.value.DoubleValue
-15.179

@<SCITEGIC>MOL_PROPERTY
Grad RMS
SciTegic.value.DoubleValue
0.000000

@<SCITEGIC>MOL_PROPERTY
U
SciTegic.value.DoubleValue
45.697

@<SCITEGIC>MOL_PROPERTY
W
SciTegic.value.DoubleValue
-60.876

@<SCITEGIC>MOL_PROPERTY
W(PB)
SciTegic.value.DoubleValue
-62.586

@<SCITEGIC>MOL_PROPERTY
W(SA)
SciTegic.value.DoubleValue
1.710

@<SCITEGIC>MOL_PROPERTY
Valence
SciTegic.value.DoubleValue
1.263

@<SCITEGIC>MOL_PROPERTY
Coulomb
SciTegic.value.DoubleValue
44.179

@<SCITEGIC>MOL_PROPERTY
VdW
SciTegic.value.DoubleValue
0.255

@<SCITEGIC>MOL_PROPERTY
VdW6
SciTegic.value.DoubleValue
-3.552

@<SCITEGIC>MOL_PROPERTY
VdW12
SciTegic.value.DoubleValue
3.807

@<SCITEGIC>MOL_PROPERTY
Bond
SciTegic.value.DoubleValue
0.125

@<SCITEGIC>MOL_PROPERTY
Angle
SciTegic.value.DoubleValue
0.616

@<SCITEGIC>MOL_PROPERTY
Pdih
SciTegic.value.DoubleValue
0.521

@<SCITEGIC>MOL_PROPERTY
Idih
SciTegic.value.DoubleValue
0.000

@<SCITEGIC>MOL_PROPERTY
Tether
SciTegic.value.DoubleValue
0.000

@<TRIPOS>MOLECULE
guest-1_confgen4.mol2 : confsearch ligand conformer 270
          17          16           1
SMALL
USER_CHARGES
 
@<TRIPOS>ATOM
       1    N1      18.326000   19.812482   22.479101 N.4        1 MOL1        -0.5891
       2    H1      17.599840   20.049817   21.796648 H          1 MOL1         0.3726
       3    H2      19.035700   20.549224   22.434543 H          1 MOL1         0.3726
       4    H3      17.893049   19.869776   23.406430 H          1 MOL1         0.3726
       5    C1      18.921425   18.442328   22.218325 C.3        1 MOL1         0.0314
       6    H4      18.119263   17.706110   22.318608 H          1 MOL1         0.0999
       7    H5      19.663500   18.241200   22.995292 H          1 MOL1         0.0999
       8    C2      19.573291   18.301089   20.827267 C.3        1 MOL1        -0.1308
       9    H6      19.916687   17.265403   20.703825 H          1 MOL1         0.1025
      10    H7      18.811169   18.464598   20.053844 H          1 MOL1         0.1025
      11    C3      20.762973   19.263957   20.588312 C.3        1 MOL1        -0.1243
      12    H8      20.417008   20.306123   20.617508 H          1 MOL1         0.1025
      13    H9      21.150962   19.101717   19.572907 H          1 MOL1         0.1025
      14    C4      21.913192   19.068618   21.602529 C.3        1 MOL1        -0.2258
      15    H10     22.758973   19.723614   21.356353 H          1 MOL1         0.1036
      16    H11     22.277543   18.033151   21.591340 H          1 MOL1         0.1036
      17    H12     21.595411   19.308831   22.624909 H          1 MOL1         0.1036
@<TRIPOS>BOND
    1     1     2    1
    2     1     3    1
    3     1     4    1
    4     1     5    1
    5     5     6    1
    6     5     7    1
    7     5     8    1
    8     8     9    1
    9     8    10    1
   10     8    11    1
   11    11    12    1
   12    11    13    1
   13    11    14    1
   14    14    15    1
   15    14    16    1
   16    14    17    1
@<TRIPOS>SUBSTRUCTURE
       1 MOL1            1 RESIDUE      1      MOL     
@<SCITEGIC>MOL_PROPERTY
VConf Rank
SciTegic.value.IntegerValue
270

@<SCITEGIC>MOL_PROPERTY
Conf_Id
SciTegic.value.IntegerValue
43

@<SCITEGIC>MOL_PROPERTY
Delta U+W
SciTegic.value.DoubleValue
0.642

@<SCITEGIC>MOL_PROPERTY
U+W
SciTegic.value.DoubleValue
-15.222

@<SCITEGIC>MOL_PROPERTY
Grad RMS
SciTegic.value.DoubleValue
0.000000

@<SCITEGIC>MOL_PROPERTY
U
SciTegic.value.DoubleValue
45.697

@<SCITEGIC>MOL_PROPERTY
W
SciTegic.value.DoubleValue
-60.919

@<SCITEGIC>MOL_PROPERTY
W(PB)
SciTegic.value.DoubleValue
-62.631

@<SCITEGIC>MOL_PROPERTY
W(SA)
SciTegic.value.DoubleValue
1.712

@<SCITEGIC>MOL_PROPERTY
Valence
SciTegic.value.DoubleValue
1.262

@<SCITEGIC>MOL_PROPERTY
Coulomb
SciTegic.value.DoubleValue
44.179

@<SCITEGIC>MOL_PROPERTY
VdW
SciTegic.value.DoubleValue
0.255

@<SCITEGIC>MOL_PROPERTY
VdW6
SciTegic.value.DoubleValue
-3.552

@<SCITEGIC>MOL_PROPERTY
VdW12
SciTegic.value.DoubleValue
3.807

@<SCITEGIC>MOL_PROPERTY
Bond
SciTegic.value.DoubleValue
0.125

@<SCITEGIC>MOL_PROPERTY
Angle
SciTegic.value.DoubleValue
0.616

@<SCITEGIC>MOL_PROPERTY
Pdih
SciTegic.value.DoubleValue
0.521

@<SCITEGIC>MOL_PROPERTY
Idih
SciTegic.value.DoubleValue
0.000

@<SCITEGIC>MOL_PROPERTY
Tether
SciTegic.value.DoubleValue
0.000

@<TRIPOS>MOLECULE
guest-1_confgen4.mol2 : confsearch ligand conformer 271
          17          16           1
SMALL
USER_CHARGES
 
@<TRIPOS>ATOM
       1    N1      20.949916   17.147376   20.210084 N.4        1 MOL1        -0.5891
       2    H1      20.159912   17.025697   19.569159 H          1 MOL1         0.3726
       3    H2      20.875925   16.413606   20.921284 H          1 MOL1         0.3726
       4    H3      21.800591   16.953533   19.671860 H          1 MOL1         0.3726
       5    C1      20.974968   18.532937   20.824045 C.3        1 MOL1         0.0314
       6    H4      21.085953   19.259087   20.014161 H          1 MOL1         0.0999
       7    H5      21.855929   18.600910   21.468104 H          1 MOL1         0.0999
       8    C2      19.710795   18.857693   21.640539 C.3        1 MOL1        -0.1308
       9    H6      18.826874   18.773325   20.994352 H          1 MOL1         0.1025
      10    H7      19.594282   18.117510   22.443373 H          1 MOL1         0.1025
      11    C3      19.776924   20.276365   22.247594 C.3        1 MOL1        -0.1243
      12    H8      19.896891   21.017481   21.444673 H          1 MOL1         0.1025
      13    H9      20.663312   20.362451   22.891979 H          1 MOL1         0.1025
      14    C4      18.512028   20.609247   23.068070 C.3        1 MOL1        -0.2258
      15    H10     18.578602   21.620325   23.490369 H          1 MOL1         0.1036
      16    H11     18.383990   19.904982   23.900431 H          1 MOL1         0.1036
      17    H12     17.611514   20.565121   22.441703 H          1 MOL1         0.1036
@<TRIPOS>BOND
    1     1     2    1
    2     1     3    1
    3     1     4    1
    4     1     5    1
    5     5     6    1
    6     5     7    1
    7     5     8    1
    8     8     9    1
    9     8    10    1
   10     8    11    1
   11    11    12    1
   12    11    13    1
   13    11    14    1
   14    14    15    1
   15    14    16    1
   16    14    17    1
@<TRIPOS>SUBSTRUCTURE
       1 MOL1            1 RESIDUE      1      MOL     
@<SCITEGIC>MOL_PROPERTY
VConf Rank
SciTegic.value.IntegerValue
271

@<SCITEGIC>MOL_PROPERTY
Conf_Id
SciTegic.value.IntegerValue
7

@<SCITEGIC>MOL_PROPERTY
Delta U+W
SciTegic.value.DoubleValue
0.000

@<SCITEGIC>MOL_PROPERTY
U+W
SciTegic.value.DoubleValue
-15.865

@<SCITEGIC>MOL_PROPERTY
Grad RMS
SciTegic.value.DoubleValue
0.000000

@<SCITEGIC>MOL_PROPERTY
U
SciTegic.value.DoubleValue
44.664

@<SCITEGIC>MOL_PROPERTY
W
SciTegic.value.DoubleValue
-60.529

@<SCITEGIC>MOL_PROPERTY
W(PB)
SciTegic.value.DoubleValue
-62.309

@<SCITEGIC>MOL_PROPERTY
W(SA)
SciTegic.value.DoubleValue
1.780

@<SCITEGIC>MOL_PROPERTY
Valence
SciTegic.value.DoubleValue
0.872

@<SCITEGIC>MOL_PROPERTY
Coulomb
SciTegic.value.DoubleValue
43.648

@<SCITEGIC>MOL_PROPERTY
VdW
SciTegic.value.DoubleValue
0.144

@<SCITEGIC>MOL_PROPERTY
VdW6
SciTegic.value.DoubleValue
-2.370

@<SCITEGIC>MOL_PROPERTY
VdW12
SciTegic.value.DoubleValue
2.515

@<SCITEGIC>MOL_PROPERTY
Bond
SciTegic.value.DoubleValue
0.080

@<SCITEGIC>MOL_PROPERTY
Angle
SciTegic.value.DoubleValue
0.376

@<SCITEGIC>MOL_PROPERTY
Pdih
SciTegic.value.DoubleValue
0.416

@<SCITEGIC>MOL_PROPERTY
Idih
SciTegic.value.DoubleValue
0.000

@<SCITEGIC>MOL_PROPERTY
Tether
SciTegic.value.DoubleValue
0.000

@<TRIPOS>MOLECULE
guest-1_confgen4.mol2 : confsearch ligand conformer 272
          17          16           1
SMALL
USER_CHARGES
 
@<TRIPOS>ATOM
       1    N1      17.682938   19.823165   21.114064 N.4        1 MOL1        -0.5891
       2    H1      17.374236   19.360924   20.253434 H          1 MOL1         0.3726
       3    H2      17.901595   20.794359   20.871951 H          1 MOL1         0.3726
       4    H3      16.873743   19.849422   21.742837 H          1 MOL1         0.3726
       5    C1      18.865140   19.115723   21.745951 C.3        1 MOL1         0.0314
       6    H4      18.552633   18.100390   22.004500 H          1 MOL1         0.0999
       7    H5      19.117228   19.642698   22.669848 H          1 MOL1         0.0999
       8    C2      20.100253   19.058613   20.826608 C.3        1 MOL1        -0.1308
       9    H6      19.825878   18.563234   19.885760 H          1 MOL1         0.1025
      10    H7      20.413099   20.078359   20.565582 H          1 MOL1         0.1025
      11    C3      21.286196   18.300339   21.467362 C.3        1 MOL1        -0.1243
      12    H8      22.100973   18.226436   20.733429 H          1 MOL1         0.1025
      13    H9      20.984660   17.268989   21.698830 H          1 MOL1         0.1025
      14    C4      21.820526   18.984527   22.746555 C.3        1 MOL1        -0.2258
      15    H10     22.123533   20.019970   22.543653 H          1 MOL1         0.1036
      16    H11     22.697558   18.448587   23.132028 H          1 MOL1         0.1036
      17    H12     21.065193   18.998036   23.542408 H          1 MOL1         0.1036
@<TRIPOS>BOND
    1     1     2    1
    2     1     3    1
    3     1     4    1
    4     1     5    1
    5     5     6    1
    6     5     7    1
    7     5     8    1
    8     8     9    1
    9     8    10    1
   10     8    11    1
   11    11    12    1
   12    11    13    1
   13    11    14    1
   14    14    15    1
   15    14    16    1
   16    14    17    1
@<TRIPOS>SUBSTRUCTURE
       1 MOL1            1 RESIDUE      1      MOL     
@<SCITEGIC>MOL_PROPERTY
VConf Rank
SciTegic.value.IntegerValue
272

@<SCITEGIC>MOL_PROPERTY
Conf_Id
SciTegic.value.IntegerValue
36

@<SCITEGIC>MOL_PROPERTY
Delta U+W
SciTegic.value.DoubleValue
0.275

@<SCITEGIC>MOL_PROPERTY
U+W
SciTegic.value.DoubleValue
-15.590

@<SCITEGIC>MOL_PROPERTY
Grad RMS
SciTegic.value.DoubleValue
0.000000

@<SCITEGIC>MOL_PROPERTY
U
SciTegic.value.DoubleValue
45.174

@<SCITEGIC>MOL_PROPERTY
W
SciTegic.value.DoubleValue
-60.765

@<SCITEGIC>MOL_PROPERTY
W(PB)
SciTegic.value.DoubleValue
-62.518

@<SCITEGIC>MOL_PROPERTY
W(SA)
SciTegic.value.DoubleValue
1.754

@<SCITEGIC>MOL_PROPERTY
Valence
SciTegic.value.DoubleValue
1.161

@<SCITEGIC>MOL_PROPERTY
Coulomb
SciTegic.value.DoubleValue
43.789

@<SCITEGIC>MOL_PROPERTY
VdW
SciTegic.value.DoubleValue
0.224

@<SCITEGIC>MOL_PROPERTY
VdW6
SciTegic.value.DoubleValue
-2.897

@<SCITEGIC>MOL_PROPERTY
VdW12
SciTegic.value.DoubleValue
3.121

@<SCITEGIC>MOL_PROPERTY
Bond
SciTegic.value.DoubleValue
0.100

@<SCITEGIC>MOL_PROPERTY
Angle
SciTegic.value.DoubleValue
0.500

@<SCITEGIC>MOL_PROPERTY
Pdih
SciTegic.value.DoubleValue
0.561

@<SCITEGIC>MOL_PROPERTY
Idih
SciTegic.value.DoubleValue
0.000

@<SCITEGIC>MOL_PROPERTY
Tether
SciTegic.value.DoubleValue
0.000

@<TRIPOS>MOLECULE
guest-1_confgen4.mol2 : confsearch ligand conformer 273
          17          16           1
SMALL
USER_CHARGES
 
@<TRIPOS>ATOM
       1    N1      18.414372   17.933347   21.455047 N.4        1 MOL1        -0.5891
       2    H1      19.176699   17.423160   21.908272 H          1 MOL1         0.3726
       3    H2      18.379655   17.619867   20.480365 H          1 MOL1         0.3726
       4    H3      17.541260   17.627836   21.896818 H          1 MOL1         0.3726
       5    C1      18.603401   19.434596   21.557753 C.3        1 MOL1         0.0314
       6    H4      18.564211   19.719021   22.612679 H          1 MOL1         0.0999
       7    H5      17.753394   19.899355   21.050776 H          1 MOL1         0.0999
       8    C2      19.911571   19.954088   20.924956 C.3        1 MOL1        -0.1308
       9    H6      20.076727   19.470237   19.953185 H          1 MOL1         0.1025
      10    H7      19.778470   21.022794   20.710488 H          1 MOL1         0.1025
      11    C3      21.165302   19.800925   21.823514 C.3        1 MOL1        -0.1243
      12    H8      21.011903   20.342667   22.767445 H          1 MOL1         0.1025
      13    H9      22.011170   20.294103   21.324244 H          1 MOL1         0.1025
      14    C4      21.558631   18.337478   22.127652 C.3        1 MOL1        -0.2258
      15    H10     20.840393   17.860136   22.804374 H          1 MOL1         0.1036
      16    H11     22.538791   18.301538   22.620756 H          1 MOL1         0.1036
      17    H12     21.627247   17.743570   21.206936 H          1 MOL1         0.1036
@<TRIPOS>BOND
    1     1     2    1
    2     1     3    1
    3     1     4    1
    4     1     5    1
    5     5     6    1
    6     5     7    1
    7     5     8    1
    8     8     9    1
    9     8    10    1
   10     8    11    1
   11    11    12    1
   12    11    13    1
   13    11    14    1
   14    14    15    1
   15    14    16    1
   16    14    17    1
@<TRIPOS>SUBSTRUCTURE
       1 MOL1            1 RESIDUE      1      MOL     
@<SCITEGIC>MOL_PROPERTY
VConf Rank
SciTegic.value.IntegerValue
273

@<SCITEGIC>MOL_PROPERTY
Conf_Id
SciTegic.value.IntegerValue
19

@<SCITEGIC>MOL_PROPERTY
Delta U+W
SciTegic.value.DoubleValue
2.662

@<SCITEGIC>MOL_PROPERTY
U+W
SciTegic.value.DoubleValue
-13.203

@<SCITEGIC>MOL_PROPERTY
Grad RMS
SciTegic.value.DoubleValue
0.000000

@<SCITEGIC>MOL_PROPERTY
U
SciTegic.value.DoubleValue
47.423

@<SCITEGIC>MOL_PROPERTY
W
SciTegic.value.DoubleValue
-60.626

@<SCITEGIC>MOL_PROPERTY
W(PB)
SciTegic.value.DoubleValue
-62.328

@<SCITEGIC>MOL_PROPERTY
W(SA)
SciTegic.value.DoubleValue
1.702

@<SCITEGIC>MOL_PROPERTY
Valence
SciTegic.value.DoubleValue
2.414

@<SCITEGIC>MOL_PROPERTY
Coulomb
SciTegic.value.DoubleValue
44.831

@<SCITEGIC>MOL_PROPERTY
VdW
SciTegic.value.DoubleValue
0.178

@<SCITEGIC>MOL_PROPERTY
VdW6
SciTegic.value.DoubleValue
-3.743

@<SCITEGIC>MOL_PROPERTY
VdW12
SciTegic.value.DoubleValue
3.921

@<SCITEGIC>MOL_PROPERTY
Bond
SciTegic.value.DoubleValue
0.138

@<SCITEGIC>MOL_PROPERTY
Angle
SciTegic.value.DoubleValue
0.941

@<SCITEGIC>MOL_PROPERTY
Pdih
SciTegic.value.DoubleValue
1.335

@<SCITEGIC>MOL_PROPERTY
Idih
SciTegic.value.DoubleValue
0.000

@<SCITEGIC>MOL_PROPERTY
Tether
SciTegic.value.DoubleValue
0.000

@<TRIPOS>MOLECULE
guest-1_confgen4.mol2 : confsearch ligand conformer 274
          17          16           1
SMALL
USER_CHARGES
 
@<TRIPOS>ATOM
       1    N1      20.847576   18.037669   22.813452 N.4        1 MOL1        -0.5891
       2    H1      21.533478   18.037301   23.575267 H          1 MOL1         0.3726
       3    H2      20.731332   17.063690   22.517932 H          1 MOL1         0.3726
       4    H3      19.954718   18.340063   23.211203 H          1 MOL1         0.3726
       5    C1      21.281236   18.927288   21.664297 C.3        1 MOL1         0.0314
       6    H4      22.234774   18.536083   21.299249 H          1 MOL1         0.0999
       7    H5      21.455330   19.935074   22.050766 H          1 MOL1         0.0999
       8    C2      20.278968   18.983284   20.492147 C.3        1 MOL1        -0.1308
       9    H6      20.826157   19.313371   19.599134 H          1 MOL1         0.1025
      10    H7      19.911088   17.974154   20.264000 H          1 MOL1         0.1025
      11    C3      19.090313   19.954320   20.708691 C.3        1 MOL1        -0.1243
      12    H8      18.503374   19.995208   19.780348 H          1 MOL1         0.1025
      13    H9      19.470111   20.972537   20.873041 H          1 MOL1         0.1025
      14    C4      18.148294   19.562393   21.869670 C.3        1 MOL1        -0.2258
      15    H10     17.825657   18.516462   21.785489 H          1 MOL1         0.1036
      16    H11     17.247977   20.190439   21.857719 H          1 MOL1         0.1036
      17    H12     18.628830   19.707511   22.844198 H          1 MOL1         0.1036
@<TRIPOS>BOND
    1     1     2    1
    2     1     3    1
    3     1     4    1
    4     1     5    1
    5     5     6    1
    6     5     7    1
    7     5     8    1
    8     8     9    1
    9     8    10    1
   10     8    11    1
   11    11    12    1
   12    11    13    1
   13    11    14    1
   14    14    15    1
   15    14    16    1
   16    14    17    1
@<TRIPOS>SUBSTRUCTURE
       1 MOL1            1 RESIDUE      1      MOL     
@<SCITEGIC>MOL_PROPERTY
VConf Rank
SciTegic.value.IntegerValue
274

@<SCITEGIC>MOL_PROPERTY
Conf_Id
SciTegic.value.IntegerValue
44

@<SCITEGIC>MOL_PROPERTY
Delta U+W
SciTegic.value.DoubleValue
2.712

@<SCITEGIC>MOL_PROPERTY
U+W
SciTegic.value.DoubleValue
-13.153

@<SCITEGIC>MOL_PROPERTY
Grad RMS
SciTegic.value.DoubleValue
0.000000

@<SCITEGIC>MOL_PROPERTY
U
SciTegic.value.DoubleValue
47.423

@<SCITEGIC>MOL_PROPERTY
W
SciTegic.value.DoubleValue
-60.576

@<SCITEGIC>MOL_PROPERTY
W(PB)
SciTegic.value.DoubleValue
-62.262

@<SCITEGIC>MOL_PROPERTY
W(SA)
SciTegic.value.DoubleValue
1.687

@<SCITEGIC>MOL_PROPERTY
Valence
SciTegic.value.DoubleValue
2.414

@<SCITEGIC>MOL_PROPERTY
Coulomb
SciTegic.value.DoubleValue
44.831

@<SCITEGIC>MOL_PROPERTY
VdW
SciTegic.value.DoubleValue
0.178

@<SCITEGIC>MOL_PROPERTY
VdW6
SciTegic.value.DoubleValue
-3.743

@<SCITEGIC>MOL_PROPERTY
VdW12
SciTegic.value.DoubleValue
3.922

@<SCITEGIC>MOL_PROPERTY
Bond
SciTegic.value.DoubleValue
0.138

@<SCITEGIC>MOL_PROPERTY
Angle
SciTegic.value.DoubleValue
0.941

@<SCITEGIC>MOL_PROPERTY
Pdih
SciTegic.value.DoubleValue
1.335

@<SCITEGIC>MOL_PROPERTY
Idih
SciTegic.value.DoubleValue
0.000

@<SCITEGIC>MOL_PROPERTY
Tether
SciTegic.value.DoubleValue
0.000

@<TRIPOS>MOLECULE
guest-1_confgen4.mol2 : confsearch ligand conformer 275
          17          16           1
SMALL
USER_CHARGES
 
@<TRIPOS>ATOM
       1    N1      18.396095   18.455765   20.464481 N.4        1 MOL1        -0.5891
       2    H1      19.148668   18.744582   19.833083 H          1 MOL1         0.3726
       3    H2      17.667180   19.173846   20.415266 H          1 MOL1         0.3726
       4    H3      17.993789   17.596281   20.077046 H          1 MOL1         0.3726
       5    C1      18.897651   18.254872   21.881500 C.3        1 MOL1         0.0314
       6    H4      19.647284   17.459488   21.866713 H          1 MOL1         0.0999
       7    H5      18.054401   17.913123   22.487862 H          1 MOL1         0.0999
       8    C2      19.500200   19.525953   22.514909 C.3        1 MOL1        -0.1308
       9    H6      18.728368   20.305544   22.562474 H          1 MOL1         0.1025
      10    H7      19.774806   19.303926   23.554669 H          1 MOL1         0.1025
      11    C3      20.740401   20.075428   21.766889 C.3        1 MOL1        -0.1243
      12    H8      21.088861   20.983330   22.278940 H          1 MOL1         0.1025
      13    H9      20.461028   20.388476   20.751702 H          1 MOL1         0.1025
      14    C4      21.904229   19.060336   21.696941 C.3        1 MOL1        -0.2258
      15    H10     22.202839   18.732569   22.701166 H          1 MOL1         0.1036
      16    H11     22.781963   19.513316   21.218026 H          1 MOL1         0.1036
      17    H12     21.630879   18.171928   21.113882 H          1 MOL1         0.1036
@<TRIPOS>BOND
    1     1     2    1
    2     1     3    1
    3     1     4    1
    4     1     5    1
    5     5     6    1
    6     5     7    1
    7     5     8    1
    8     8     9    1
    9     8    10    1
   10     8    11    1
   11    11    12    1
   12    11    13    1
   13    11    14    1
   14    14    15    1
   15    14    16    1
   16    14    17    1
@<TRIPOS>SUBSTRUCTURE
       1 MOL1            1 RESIDUE      1      MOL     
@<SCITEGIC>MOL_PROPERTY
VConf Rank
SciTegic.value.IntegerValue
275

@<SCITEGIC>MOL_PROPERTY
Conf_Id
SciTegic.value.IntegerValue
1

@<SCITEGIC>MOL_PROPERTY
Delta U+W
SciTegic.value.DoubleValue
0.685

@<SCITEGIC>MOL_PROPERTY
U+W
SciTegic.value.DoubleValue
-15.179

@<SCITEGIC>MOL_PROPERTY
Grad RMS
SciTegic.value.DoubleValue
0.000000

@<SCITEGIC>MOL_PROPERTY
U
SciTegic.value.DoubleValue
45.697

@<SCITEGIC>MOL_PROPERTY
W
SciTegic.value.DoubleValue
-60.876

@<SCITEGIC>MOL_PROPERTY
W(PB)
SciTegic.value.DoubleValue
-62.586

@<SCITEGIC>MOL_PROPERTY
W(SA)
SciTegic.value.DoubleValue
1.710

@<SCITEGIC>MOL_PROPERTY
Valence
SciTegic.value.DoubleValue
1.263

@<SCITEGIC>MOL_PROPERTY
Coulomb
SciTegic.value.DoubleValue
44.179

@<SCITEGIC>MOL_PROPERTY
VdW
SciTegic.value.DoubleValue
0.255

@<SCITEGIC>MOL_PROPERTY
VdW6
SciTegic.value.DoubleValue
-3.552

@<SCITEGIC>MOL_PROPERTY
VdW12
SciTegic.value.DoubleValue
3.807

@<SCITEGIC>MOL_PROPERTY
Bond
SciTegic.value.DoubleValue
0.125

@<SCITEGIC>MOL_PROPERTY
Angle
SciTegic.value.DoubleValue
0.616

@<SCITEGIC>MOL_PROPERTY
Pdih
SciTegic.value.DoubleValue
0.521

@<SCITEGIC>MOL_PROPERTY
Idih
SciTegic.value.DoubleValue
0.000

@<SCITEGIC>MOL_PROPERTY
Tether
SciTegic.value.DoubleValue
0.000

@<TRIPOS>MOLECULE
guest-1_confgen4.mol2 : confsearch ligand conformer 276
          17          16           1
SMALL
USER_CHARGES
 
@<TRIPOS>ATOM
       1    N1      18.515747   19.242646   22.982149 N.4        1 MOL1        -0.5891
       2    H1      18.518342   20.186768   23.379646 H          1 MOL1         0.3726
       3    H2      19.288103   18.729325   23.416218 H          1 MOL1         0.3726
       4    H3      17.647452   18.792790   23.289332 H          1 MOL1         0.3726
       5    C1      18.635258   19.264860   21.470501 C.3        1 MOL1         0.0314
       6    H4      17.763282   19.793065   21.075284 H          1 MOL1         0.0999
       7    H5      18.596369   18.233087   21.111701 H          1 MOL1         0.0999
       8    C2      19.920829   19.945995   20.957391 C.3        1 MOL1        -0.1308
       9    H6      19.890109   19.972839   19.860058 H          1 MOL1         0.1025
      10    H7      19.930801   20.992890   21.288538 H          1 MOL1         0.1025
      11    C3      21.227522   19.250164   21.413386 C.3        1 MOL1        -0.1243
      12    H8      21.318069   19.296387   22.507150 H          1 MOL1         0.1025
      13    H9      22.084598   19.810596   21.014334 H          1 MOL1         0.1025
      14    C4      21.326323   17.780426   20.944446 C.3        1 MOL1        -0.2258
      15    H10     22.293466   17.348512   21.232634 H          1 MOL1         0.1036
      16    H11     21.239530   17.707940   19.852530 H          1 MOL1         0.1036
      17    H12     20.540187   17.159750   21.392444 H          1 MOL1         0.1036
@<TRIPOS>BOND
    1     1     2    1
    2     1     3    1
    3     1     4    1
    4     1     5    1
    5     5     6    1
    6     5     7    1
    7     5     8    1
    8     8     9    1
    9     8    10    1
   10     8    11    1
   11    11    12    1
   12    11    13    1
   13    11    14    1
   14    14    15    1
   15    14    16    1
   16    14    17    1
@<TRIPOS>SUBSTRUCTURE
       1 MOL1            1 RESIDUE      1      MOL     
@<SCITEGIC>MOL_PROPERTY
VConf Rank
SciTegic.value.IntegerValue
276

@<SCITEGIC>MOL_PROPERTY
Conf_Id
SciTegic.value.IntegerValue
43

@<SCITEGIC>MOL_PROPERTY
Delta U+W
SciTegic.value.DoubleValue
0.642

@<SCITEGIC>MOL_PROPERTY
U+W
SciTegic.value.DoubleValue
-15.222

@<SCITEGIC>MOL_PROPERTY
Grad RMS
SciTegic.value.DoubleValue
0.000000

@<SCITEGIC>MOL_PROPERTY
U
SciTegic.value.DoubleValue
45.697

@<SCITEGIC>MOL_PROPERTY
W
SciTegic.value.DoubleValue
-60.919

@<SCITEGIC>MOL_PROPERTY
W(PB)
SciTegic.value.DoubleValue
-62.631

@<SCITEGIC>MOL_PROPERTY
W(SA)
SciTegic.value.DoubleValue
1.712

@<SCITEGIC>MOL_PROPERTY
Valence
SciTegic.value.DoubleValue
1.262

@<SCITEGIC>MOL_PROPERTY
Coulomb
SciTegic.value.DoubleValue
44.179

@<SCITEGIC>MOL_PROPERTY
VdW
SciTegic.value.DoubleValue
0.255

@<SCITEGIC>MOL_PROPERTY
VdW6
SciTegic.value.DoubleValue
-3.552

@<SCITEGIC>MOL_PROPERTY
VdW12
SciTegic.value.DoubleValue
3.807

@<SCITEGIC>MOL_PROPERTY
Bond
SciTegic.value.DoubleValue
0.125

@<SCITEGIC>MOL_PROPERTY
Angle
SciTegic.value.DoubleValue
0.616

@<SCITEGIC>MOL_PROPERTY
Pdih
SciTegic.value.DoubleValue
0.521

@<SCITEGIC>MOL_PROPERTY
Idih
SciTegic.value.DoubleValue
0.000

@<SCITEGIC>MOL_PROPERTY
Tether
SciTegic.value.DoubleValue
0.000

@<TRIPOS>MOLECULE
guest-1_confgen4.mol2 : confsearch ligand conformer 277
          17          16           1
SMALL
USER_CHARGES
 
@<TRIPOS>ATOM
       1    N1      21.502670   18.192057   23.457660 N.4        1 MOL1        -0.5891
       2    H1      22.047214   19.049903   23.589067 H          1 MOL1         0.3726
       3    H2      22.066539   17.563934   22.876961 H          1 MOL1         0.3726
       4    H3      21.420103   17.749601   24.378705 H          1 MOL1         0.3726
       5    C1      20.145687   18.469437   22.842020 C.3        1 MOL1         0.0314
       6    H4      19.590555   19.116899   23.526231 H          1 MOL1         0.0999
       7    H5      19.611312   17.519002   22.760526 H          1 MOL1         0.0999
       8    C2      20.232661   19.134601   21.456288 C.3        1 MOL1        -0.1308
       9    H6      20.783296   20.081120   21.539318 H          1 MOL1         0.1025
      10    H7      20.803846   18.488662   20.776214 H          1 MOL1         0.1025
      11    C3      18.830365   19.399553   20.865621 C.3        1 MOL1        -0.1243
      12    H8      18.256941   20.043383   21.547525 H          1 MOL1         0.1025
      13    H9      18.277492   18.452873   20.785282 H          1 MOL1         0.1025
      14    C4      18.909672   20.066795   19.475494 C.3        1 MOL1        -0.2258
      15    H10     17.904072   20.246461   19.073577 H          1 MOL1         0.1036
      16    H11     19.448320   19.430163   18.761516 H          1 MOL1         0.1036
      17    H12     19.427664   21.033203   19.529777 H          1 MOL1         0.1036
@<TRIPOS>BOND
    1     1     2    1
    2     1     3    1
    3     1     4    1
    4     1     5    1
    5     5     6    1
    6     5     7    1
    7     5     8    1
    8     8     9    1
    9     8    10    1
   10     8    11    1
   11    11    12    1
   12    11    13    1
   13    11    14    1
   14    14    15    1
   15    14    16    1
   16    14    17    1
@<TRIPOS>SUBSTRUCTURE
       1 MOL1            1 RESIDUE      1      MOL     
@<SCITEGIC>MOL_PROPERTY
VConf Rank
SciTegic.value.IntegerValue
277

@<SCITEGIC>MOL_PROPERTY
Conf_Id
SciTegic.value.IntegerValue
7

@<SCITEGIC>MOL_PROPERTY
Delta U+W
SciTegic.value.DoubleValue
0.000

@<SCITEGIC>MOL_PROPERTY
U+W
SciTegic.value.DoubleValue
-15.865

@<SCITEGIC>MOL_PROPERTY
Grad RMS
SciTegic.value.DoubleValue
0.000000

@<SCITEGIC>MOL_PROPERTY
U
SciTegic.value.DoubleValue
44.664

@<SCITEGIC>MOL_PROPERTY
W
SciTegic.value.DoubleValue
-60.529

@<SCITEGIC>MOL_PROPERTY
W(PB)
SciTegic.value.DoubleValue
-62.309

@<SCITEGIC>MOL_PROPERTY
W(SA)
SciTegic.value.DoubleValue
1.780

@<SCITEGIC>MOL_PROPERTY
Valence
SciTegic.value.DoubleValue
0.872

@<SCITEGIC>MOL_PROPERTY
Coulomb
SciTegic.value.DoubleValue
43.648

@<SCITEGIC>MOL_PROPERTY
VdW
SciTegic.value.DoubleValue
0.144

@<SCITEGIC>MOL_PROPERTY
VdW6
SciTegic.value.DoubleValue
-2.370

@<SCITEGIC>MOL_PROPERTY
VdW12
SciTegic.value.DoubleValue
2.515

@<SCITEGIC>MOL_PROPERTY
Bond
SciTegic.value.DoubleValue
0.080

@<SCITEGIC>MOL_PROPERTY
Angle
SciTegic.value.DoubleValue
0.376

@<SCITEGIC>MOL_PROPERTY
Pdih
SciTegic.value.DoubleValue
0.416

@<SCITEGIC>MOL_PROPERTY
Idih
SciTegic.value.DoubleValue
0.000

@<SCITEGIC>MOL_PROPERTY
Tether
SciTegic.value.DoubleValue
0.000

@<TRIPOS>MOLECULE
guest-1_confgen4.mol2 : confsearch ligand conformer 278
          17          16           1
SMALL
USER_CHARGES
 
@<TRIPOS>ATOM
       1    N1      18.413467   20.046816   19.999073 N.4        1 MOL1        -0.5891
       2    H1      18.956023   20.593973   19.323870 H          1 MOL1         0.3726
       3    H2      17.945173   20.714025   20.619701 H          1 MOL1         0.3726
       4    H3      17.677864   19.568028   19.469455 H          1 MOL1         0.3726
       5    C1      19.281763   19.070270   20.767042 C.3        1 MOL1         0.0314
       6    H4      19.723387   18.373854   20.049141 H          1 MOL1         0.0999
       7    H5      18.634296   18.503349   21.441004 H          1 MOL1         0.0999
       8    C2      20.398890   19.757603   21.575471 C.3        1 MOL1        -0.1308
       9    H6      21.019166   20.356189   20.895156 H          1 MOL1         0.1025
      10    H7      19.955390   20.458296   22.295350 H          1 MOL1         0.1025
      11    C3      21.301620   18.748392   22.322853 C.3        1 MOL1        -0.1243
      12    H8      22.120712   19.295305   22.810660 H          1 MOL1         0.1025
      13    H9      21.772597   18.067037   21.600276 H          1 MOL1         0.1025
      14    C4      20.538221   17.928473   23.388176 C.3        1 MOL1        -0.2258
      15    H10     20.052509   18.586820   24.120151 H          1 MOL1         0.1036
      16    H11     21.227089   17.271209   23.934501 H          1 MOL1         0.1036
      17    H12     19.767216   17.294136   22.932920 H          1 MOL1         0.1036
@<TRIPOS>BOND
    1     1     2    1
    2     1     3    1
    3     1     4    1
    4     1     5    1
    5     5     6    1
    6     5     7    1
    7     5     8    1
    8     8     9    1
    9     8    10    1
   10     8    11    1
   11    11    12    1
   12    11    13    1
   13    11    14    1
   14    14    15    1
   15    14    16    1
   16    14    17    1
@<TRIPOS>SUBSTRUCTURE
       1 MOL1            1 RESIDUE      1      MOL     
@<SCITEGIC>MOL_PROPERTY
VConf Rank
SciTegic.value.IntegerValue
278

@<SCITEGIC>MOL_PROPERTY
Conf_Id
SciTegic.value.IntegerValue
36

@<SCITEGIC>MOL_PROPERTY
Delta U+W
SciTegic.value.DoubleValue
0.275

@<SCITEGIC>MOL_PROPERTY
U+W
SciTegic.value.DoubleValue
-15.590

@<SCITEGIC>MOL_PROPERTY
Grad RMS
SciTegic.value.DoubleValue
0.000000

@<SCITEGIC>MOL_PROPERTY
U
SciTegic.value.DoubleValue
45.174

@<SCITEGIC>MOL_PROPERTY
W
SciTegic.value.DoubleValue
-60.765

@<SCITEGIC>MOL_PROPERTY
W(PB)
SciTegic.value.DoubleValue
-62.518

@<SCITEGIC>MOL_PROPERTY
W(SA)
SciTegic.value.DoubleValue
1.754

@<SCITEGIC>MOL_PROPERTY
Valence
SciTegic.value.DoubleValue
1.161

@<SCITEGIC>MOL_PROPERTY
Coulomb
SciTegic.value.DoubleValue
43.789

@<SCITEGIC>MOL_PROPERTY
VdW
SciTegic.value.DoubleValue
0.224

@<SCITEGIC>MOL_PROPERTY
VdW6
SciTegic.value.DoubleValue
-2.897

@<SCITEGIC>MOL_PROPERTY
VdW12
SciTegic.value.DoubleValue
3.121

@<SCITEGIC>MOL_PROPERTY
Bond
SciTegic.value.DoubleValue
0.100

@<SCITEGIC>MOL_PROPERTY
Angle
SciTegic.value.DoubleValue
0.500

@<SCITEGIC>MOL_PROPERTY
Pdih
SciTegic.value.DoubleValue
0.561

@<SCITEGIC>MOL_PROPERTY
Idih
SciTegic.value.DoubleValue
0.000

@<SCITEGIC>MOL_PROPERTY
Tether
SciTegic.value.DoubleValue
0.000

@<TRIPOS>MOLECULE
guest-1_confgen4.mol2 : confsearch ligand conformer 279
          17          16           1
SMALL
USER_CHARGES
 
@<TRIPOS>ATOM
       1    N1      19.119851   17.405076   22.132014 N.4        1 MOL1        -0.5891
       2    H1      18.529280   18.215332   22.335866 H          1 MOL1         0.3726
       3    H2      19.571934   17.133174   23.010177 H          1 MOL1         0.3726
       4    H3      18.496598   16.635298   21.867776 H          1 MOL1         0.3726
       5    C1      20.134341   17.707732   21.046087 C.3        1 MOL1         0.0314
       6    H4      19.597416   17.923860   20.118562 H          1 MOL1         0.0999
       7    H5      20.720147   16.797274   20.893005 H          1 MOL1         0.0999
       8    C2      21.091683   18.871532   21.378770 C.3        1 MOL1        -0.1308
       9    H6      21.443642   18.783791   22.415185 H          1 MOL1         0.1025
      10    H7      21.983606   18.762310   20.747588 H          1 MOL1         0.1025
      11    C3      20.500172   20.282153   21.127840 C.3        1 MOL1        -0.1243
      12    H8      20.209973   20.378794   20.072157 H          1 MOL1         0.1025
      13    H9      21.293415   21.024547   21.293992 H          1 MOL1         0.1025
      14    C4      19.295508   20.639328   22.027893 C.3        1 MOL1        -0.2258
      15    H10     18.404498   20.061783   21.755459 H          1 MOL1         0.1036
      16    H11     19.038204   21.700635   21.915742 H          1 MOL1         0.1036
      17    H12     19.522930   20.462097   23.087149 H          1 MOL1         0.1036
@<TRIPOS>BOND
    1     1     2    1
    2     1     3    1
    3     1     4    1
    4     1     5    1
    5     5     6    1
    6     5     7    1
    7     5     8    1
    8     8     9    1
    9     8    10    1
   10     8    11    1
   11    11    12    1
   12    11    13    1
   13    11    14    1
   14    14    15    1
   15    14    16    1
   16    14    17    1
@<TRIPOS>SUBSTRUCTURE
       1 MOL1            1 RESIDUE      1      MOL     
@<SCITEGIC>MOL_PROPERTY
VConf Rank
SciTegic.value.IntegerValue
279

@<SCITEGIC>MOL_PROPERTY
Conf_Id
SciTegic.value.IntegerValue
19

@<SCITEGIC>MOL_PROPERTY
Delta U+W
SciTegic.value.DoubleValue
2.662

@<SCITEGIC>MOL_PROPERTY
U+W
SciTegic.value.DoubleValue
-13.203

@<SCITEGIC>MOL_PROPERTY
Grad RMS
SciTegic.value.DoubleValue
0.000000

@<SCITEGIC>MOL_PROPERTY
U
SciTegic.value.DoubleValue
47.423

@<SCITEGIC>MOL_PROPERTY
W
SciTegic.value.DoubleValue
-60.626

@<SCITEGIC>MOL_PROPERTY
W(PB)
SciTegic.value.DoubleValue
-62.328

@<SCITEGIC>MOL_PROPERTY
W(SA)
SciTegic.value.DoubleValue
1.702

@<SCITEGIC>MOL_PROPERTY
Valence
SciTegic.value.DoubleValue
2.414

@<SCITEGIC>MOL_PROPERTY
Coulomb
SciTegic.value.DoubleValue
44.831

@<SCITEGIC>MOL_PROPERTY
VdW
SciTegic.value.DoubleValue
0.178

@<SCITEGIC>MOL_PROPERTY
VdW6
SciTegic.value.DoubleValue
-3.743

@<SCITEGIC>MOL_PROPERTY
VdW12
SciTegic.value.DoubleValue
3.921

@<SCITEGIC>MOL_PROPERTY
Bond
SciTegic.value.DoubleValue
0.138

@<SCITEGIC>MOL_PROPERTY
Angle
SciTegic.value.DoubleValue
0.941

@<SCITEGIC>MOL_PROPERTY
Pdih
SciTegic.value.DoubleValue
1.335

@<SCITEGIC>MOL_PROPERTY
Idih
SciTegic.value.DoubleValue
0.000

@<SCITEGIC>MOL_PROPERTY
Tether
SciTegic.value.DoubleValue
0.000

@<TRIPOS>MOLECULE
guest-1_confgen4.mol2 : confsearch ligand conformer 280
          17          16           1
SMALL
USER_CHARGES
 
@<TRIPOS>ATOM
       1    N1      19.750612   17.548193   20.529011 N.4        1 MOL1        -0.5891
       2    H1      20.177940   16.991087   19.782118 H          1 MOL1         0.3726
       3    H2      18.801345   17.187045   20.662972 H          1 MOL1         0.3726
       4    H3      20.271214   17.351919   21.387669 H          1 MOL1         0.3726
       5    C1      19.748981   19.028299   20.198374 C.3        1 MOL1         0.0314
       6    H4      19.174515   19.149275   19.275937 H          1 MOL1         0.0999
       7    H5      20.777337   19.341673   19.999421 H          1 MOL1         0.0999
       8    C2      19.133298   19.922659   21.295035 C.3        1 MOL1        -0.1308
       9    H6      18.834534   20.869664   20.826241 H          1 MOL1         0.1025
      10    H7      18.207851   19.469086   21.673916 H          1 MOL1         0.1025
      11    C3      20.091323   20.252984   22.467971 C.3        1 MOL1        -0.1243
      12    H8      19.591647   20.973777   23.130368 H          1 MOL1         0.1025
      13    H9      20.985088   20.763553   22.082581 H          1 MOL1         0.1025
      14    C4      20.519770   19.028042   23.307513 C.3        1 MOL1        -0.2258
      15    H10     19.649581   18.441090   23.629087 H          1 MOL1         0.1036
      16    H11     21.053836   19.353182   24.209851 H          1 MOL1         0.1036
      17    H12     21.200341   18.375317   22.748539 H          1 MOL1         0.1036
@<TRIPOS>BOND
    1     1     2    1
    2     1     3    1
    3     1     4    1
    4     1     5    1
    5     5     6    1
    6     5     7    1
    7     5     8    1
    8     8     9    1
    9     8    10    1
   10     8    11    1
   11    11    12    1
   12    11    13    1
   13    11    14    1
   14    14    15    1
   15    14    16    1
   16    14    17    1
@<TRIPOS>SUBSTRUCTURE
       1 MOL1            1 RESIDUE      1      MOL     
@<SCITEGIC>MOL_PROPERTY
VConf Rank
SciTegic.value.IntegerValue
280

@<SCITEGIC>MOL_PROPERTY
Conf_Id
SciTegic.value.IntegerValue
44

@<SCITEGIC>MOL_PROPERTY
Delta U+W
SciTegic.value.DoubleValue
2.712

@<SCITEGIC>MOL_PROPERTY
U+W
SciTegic.value.DoubleValue
-13.153

@<SCITEGIC>MOL_PROPERTY
Grad RMS
SciTegic.value.DoubleValue
0.000000

@<SCITEGIC>MOL_PROPERTY
U
SciTegic.value.DoubleValue
47.423

@<SCITEGIC>MOL_PROPERTY
W
SciTegic.value.DoubleValue
-60.576

@<SCITEGIC>MOL_PROPERTY
W(PB)
SciTegic.value.DoubleValue
-62.262

@<SCITEGIC>MOL_PROPERTY
W(SA)
SciTegic.value.DoubleValue
1.687

@<SCITEGIC>MOL_PROPERTY
Valence
SciTegic.value.DoubleValue
2.414

@<SCITEGIC>MOL_PROPERTY
Coulomb
SciTegic.value.DoubleValue
44.831

@<SCITEGIC>MOL_PROPERTY
VdW
SciTegic.value.DoubleValue
0.178

@<SCITEGIC>MOL_PROPERTY
VdW6
SciTegic.value.DoubleValue
-3.743

@<SCITEGIC>MOL_PROPERTY
VdW12
SciTegic.value.DoubleValue
3.922

@<SCITEGIC>MOL_PROPERTY
Bond
SciTegic.value.DoubleValue
0.138

@<SCITEGIC>MOL_PROPERTY
Angle
SciTegic.value.DoubleValue
0.941

@<SCITEGIC>MOL_PROPERTY
Pdih
SciTegic.value.DoubleValue
1.335

@<SCITEGIC>MOL_PROPERTY
Idih
SciTegic.value.DoubleValue
0.000

@<SCITEGIC>MOL_PROPERTY
Tether
SciTegic.value.DoubleValue
0.000

@<TRIPOS>MOLECULE
guest-1_confgen4.mol2 : confsearch ligand conformer 281
          17          16           1
SMALL
USER_CHARGES
 
@<TRIPOS>ATOM
       1    N1      18.167767   19.967456   21.467273 N.4        1 MOL1        -0.5891
       2    H1      18.139959   19.178654   20.814996 H          1 MOL1         0.3726
       3    H2      18.236537   20.821920   20.906434 H          1 MOL1         0.3726
       4    H3      17.259721   19.995327   21.941977 H          1 MOL1         0.3726
       5    C1      19.314986   19.842651   22.451229 C.3        1 MOL1         0.0314
       6    H4      19.164618   18.930213   23.034025 H          1 MOL1         0.0999
       7    H5      19.260597   20.693543   23.135746 H          1 MOL1         0.0999
       8    C2      20.706105   19.811176   21.785108 C.3        1 MOL1        -0.1308
       9    H6      20.863987   20.748806   21.235861 H          1 MOL1         0.1025
      10    H7      21.471735   19.785203   22.571837 H          1 MOL1         0.1025
      11    C3      20.919084   18.612366   20.827481 C.3        1 MOL1        -0.1243
      12    H8      21.925846   18.681845   20.392157 H          1 MOL1         0.1025
      13    H9      20.219030   18.674466   19.983252 H          1 MOL1         0.1025
      14    C4      20.768705   17.242976   21.528877 C.3        1 MOL1        -0.2258
      15    H10     21.460033   17.156092   22.377161 H          1 MOL1         0.1036
      16    H11     20.991779   16.426067   20.830403 H          1 MOL1         0.1036
      17    H12     19.748154   17.090003   21.901733 H          1 MOL1         0.1036
@<TRIPOS>BOND
    1     1     2    1
    2     1     3    1
    3     1     4    1
    4     1     5    1
    5     5     6    1
    6     5     7    1
    7     5     8    1
    8     8     9    1
    9     8    10    1
   10     8    11    1
   11    11    12    1
   12    11    13    1
   13    11    14    1
   14    14    15    1
   15    14    16    1
   16    14    17    1
@<TRIPOS>SUBSTRUCTURE
       1 MOL1            1 RESIDUE      1      MOL     
@<SCITEGIC>MOL_PROPERTY
VConf Rank
SciTegic.value.IntegerValue
281

@<SCITEGIC>MOL_PROPERTY
Conf_Id
SciTegic.value.IntegerValue
1

@<SCITEGIC>MOL_PROPERTY
Delta U+W
SciTegic.value.DoubleValue
0.685

@<SCITEGIC>MOL_PROPERTY
U+W
SciTegic.value.DoubleValue
-15.179

@<SCITEGIC>MOL_PROPERTY
Grad RMS
SciTegic.value.DoubleValue
0.000000

@<SCITEGIC>MOL_PROPERTY
U
SciTegic.value.DoubleValue
45.697

@<SCITEGIC>MOL_PROPERTY
W
SciTegic.value.DoubleValue
-60.876

@<SCITEGIC>MOL_PROPERTY
W(PB)
SciTegic.value.DoubleValue
-62.586

@<SCITEGIC>MOL_PROPERTY
W(SA)
SciTegic.value.DoubleValue
1.710

@<SCITEGIC>MOL_PROPERTY
Valence
SciTegic.value.DoubleValue
1.263

@<SCITEGIC>MOL_PROPERTY
Coulomb
SciTegic.value.DoubleValue
44.179

@<SCITEGIC>MOL_PROPERTY
VdW
SciTegic.value.DoubleValue
0.255

@<SCITEGIC>MOL_PROPERTY
VdW6
SciTegic.value.DoubleValue
-3.552

@<SCITEGIC>MOL_PROPERTY
VdW12
SciTegic.value.DoubleValue
3.807

@<SCITEGIC>MOL_PROPERTY
Bond
SciTegic.value.DoubleValue
0.125

@<SCITEGIC>MOL_PROPERTY
Angle
SciTegic.value.DoubleValue
0.616

@<SCITEGIC>MOL_PROPERTY
Pdih
SciTegic.value.DoubleValue
0.521

@<SCITEGIC>MOL_PROPERTY
Idih
SciTegic.value.DoubleValue
0.000

@<SCITEGIC>MOL_PROPERTY
Tether
SciTegic.value.DoubleValue
0.000

@<TRIPOS>MOLECULE
guest-1_confgen4.mol2 : confsearch ligand conformer 282
          17          16           1
SMALL
USER_CHARGES
 
@<TRIPOS>ATOM
       1    N1      19.072132   20.700101   22.252966 N.4        1 MOL1        -0.5891
       2    H1      18.074816   20.563344   22.442797 H          1 MOL1         0.3726
       3    H2      19.177281   20.792830   21.238672 H          1 MOL1         0.3726
       4    H3      19.332465   21.602075   22.664471 H          1 MOL1         0.3726
       5    C1      19.913737   19.565036   22.803592 C.3        1 MOL1         0.0314
       6    H4      19.782256   19.549194   23.888949 H          1 MOL1         0.0999
       7    H5      20.963102   19.787741   22.593732 H          1 MOL1         0.0999
       8    C2      19.549547   18.182188   22.224787 C.3        1 MOL1        -0.1308
       9    H6      20.161343   17.419824   22.725096 H          1 MOL1         0.1025
      10    H7      18.506137   17.949826   22.475889 H          1 MOL1         0.1025
      11    C3      19.747043   18.068659   20.692578 C.3        1 MOL1        -0.1243
      12    H8      19.072944   18.762766   20.172520 H          1 MOL1         0.1025
      13    H9      19.450461   17.060297   20.371408 H          1 MOL1         0.1025
      14    C4      21.205010   18.328389   20.249101 C.3        1 MOL1        -0.2258
      15    H10     21.311908   18.173455   19.167650 H          1 MOL1         0.1036
      16    H11     21.899116   17.644958   20.755269 H          1 MOL1         0.1036
      17    H12     21.516688   19.357355   20.468265 H          1 MOL1         0.1036
@<TRIPOS>BOND
    1     1     2    1
    2     1     3    1
    3     1     4    1
    4     1     5    1
    5     5     6    1
    6     5     7    1
    7     5     8    1
    8     8     9    1
    9     8    10    1
   10     8    11    1
   11    11    12    1
   12    11    13    1
   13    11    14    1
   14    14    15    1
   15    14    16    1
   16    14    17    1
@<TRIPOS>SUBSTRUCTURE
       1 MOL1            1 RESIDUE      1      MOL     
@<SCITEGIC>MOL_PROPERTY
VConf Rank
SciTegic.value.IntegerValue
282

@<SCITEGIC>MOL_PROPERTY
Conf_Id
SciTegic.value.IntegerValue
43

@<SCITEGIC>MOL_PROPERTY
Delta U+W
SciTegic.value.DoubleValue
0.642

@<SCITEGIC>MOL_PROPERTY
U+W
SciTegic.value.DoubleValue
-15.222

@<SCITEGIC>MOL_PROPERTY
Grad RMS
SciTegic.value.DoubleValue
0.000000

@<SCITEGIC>MOL_PROPERTY
U
SciTegic.value.DoubleValue
45.697

@<SCITEGIC>MOL_PROPERTY
W
SciTegic.value.DoubleValue
-60.919

@<SCITEGIC>MOL_PROPERTY
W(PB)
SciTegic.value.DoubleValue
-62.631

@<SCITEGIC>MOL_PROPERTY
W(SA)
SciTegic.value.DoubleValue
1.712

@<SCITEGIC>MOL_PROPERTY
Valence
SciTegic.value.DoubleValue
1.262

@<SCITEGIC>MOL_PROPERTY
Coulomb
SciTegic.value.DoubleValue
44.179

@<SCITEGIC>MOL_PROPERTY
VdW
SciTegic.value.DoubleValue
0.255

@<SCITEGIC>MOL_PROPERTY
VdW6
SciTegic.value.DoubleValue
-3.552

@<SCITEGIC>MOL_PROPERTY
VdW12
SciTegic.value.DoubleValue
3.807

@<SCITEGIC>MOL_PROPERTY
Bond
SciTegic.value.DoubleValue
0.125

@<SCITEGIC>MOL_PROPERTY
Angle
SciTegic.value.DoubleValue
0.616

@<SCITEGIC>MOL_PROPERTY
Pdih
SciTegic.value.DoubleValue
0.521

@<SCITEGIC>MOL_PROPERTY
Idih
SciTegic.value.DoubleValue
0.000

@<SCITEGIC>MOL_PROPERTY
Tether
SciTegic.value.DoubleValue
0.000

@<TRIPOS>MOLECULE
guest-1_confgen4.mol2 : confsearch ligand conformer 283
          17          16           1
SMALL
USER_CHARGES
 
@<TRIPOS>ATOM
       1    N1      17.553040   19.416691   20.774563 N.4        1 MOL1        -0.5891
       2    H1      17.782309   19.932160   19.919330 H          1 MOL1         0.3726
       3    H2      17.272007   20.108273   21.476298 H          1 MOL1         0.3726
       4    H3      16.723280   18.851786   20.566503 H          1 MOL1         0.3726
       5    C1      18.711235   18.562769   21.250756 C.3        1 MOL1         0.0314
       6    H4      18.935414   17.831766   20.469154 H          1 MOL1         0.0999
       7    H5      18.386659   18.021106   22.143379 H          1 MOL1         0.0999
       8    C2      19.975526   19.380190   21.572708 C.3        1 MOL1        -0.1308
       9    H6      20.289535   19.934800   20.678394 H          1 MOL1         0.1025
      10    H7      19.742711   20.123380   22.346954 H          1 MOL1         0.1025
      11    C3      21.129715   18.473404   22.053444 C.3        1 MOL1        -0.1243
      12    H8      21.360997   17.727137   21.280191 H          1 MOL1         0.1025
      13    H9      20.814876   17.915544   22.946749 H          1 MOL1         0.1025
      14    C4      22.401456   19.286500   22.378258 C.3        1 MOL1        -0.2258
      15    H10     23.208826   18.624651   22.717611 H          1 MOL1         0.1036
      16    H11     22.210215   20.018667   23.173598 H          1 MOL1         0.1036
      17    H12     22.760606   19.828821   21.493890 H          1 MOL1         0.1036
@<TRIPOS>BOND
    1     1     2    1
    2     1     3    1
    3     1     4    1
    4     1     5    1
    5     5     6    1
    6     5     7    1
    7     5     8    1
    8     8     9    1
    9     8    10    1
   10     8    11    1
   11    11    12    1
   12    11    13    1
   13    11    14    1
   14    14    15    1
   15    14    16    1
   16    14    17    1
@<TRIPOS>SUBSTRUCTURE
       1 MOL1            1 RESIDUE      1      MOL     
@<SCITEGIC>MOL_PROPERTY
VConf Rank
SciTegic.value.IntegerValue
283

@<SCITEGIC>MOL_PROPERTY
Conf_Id
SciTegic.value.IntegerValue
7

@<SCITEGIC>MOL_PROPERTY
Delta U+W
SciTegic.value.DoubleValue
0.000

@<SCITEGIC>MOL_PROPERTY
U+W
SciTegic.value.DoubleValue
-15.865

@<SCITEGIC>MOL_PROPERTY
Grad RMS
SciTegic.value.DoubleValue
0.000000

@<SCITEGIC>MOL_PROPERTY
U
SciTegic.value.DoubleValue
44.664

@<SCITEGIC>MOL_PROPERTY
W
SciTegic.value.DoubleValue
-60.529

@<SCITEGIC>MOL_PROPERTY
W(PB)
SciTegic.value.DoubleValue
-62.309

@<SCITEGIC>MOL_PROPERTY
W(SA)
SciTegic.value.DoubleValue
1.780

@<SCITEGIC>MOL_PROPERTY
Valence
SciTegic.value.DoubleValue
0.872

@<SCITEGIC>MOL_PROPERTY
Coulomb
SciTegic.value.DoubleValue
43.648

@<SCITEGIC>MOL_PROPERTY
VdW
SciTegic.value.DoubleValue
0.144

@<SCITEGIC>MOL_PROPERTY
VdW6
SciTegic.value.DoubleValue
-2.370

@<SCITEGIC>MOL_PROPERTY
VdW12
SciTegic.value.DoubleValue
2.515

@<SCITEGIC>MOL_PROPERTY
Bond
SciTegic.value.DoubleValue
0.080

@<SCITEGIC>MOL_PROPERTY
Angle
SciTegic.value.DoubleValue
0.376

@<SCITEGIC>MOL_PROPERTY
Pdih
SciTegic.value.DoubleValue
0.416

@<SCITEGIC>MOL_PROPERTY
Idih
SciTegic.value.DoubleValue
0.000

@<SCITEGIC>MOL_PROPERTY
Tether
SciTegic.value.DoubleValue
0.000

@<TRIPOS>MOLECULE
guest-1_confgen4.mol2 : confsearch ligand conformer 284
          17          16           1
SMALL
USER_CHARGES
 
@<TRIPOS>ATOM
       1    N1      19.155804   21.140709   20.595536 N.4        1 MOL1        -0.5891
       2    H1      18.275374   21.418387   21.039817 H          1 MOL1         0.3726
       3    H2      18.920171   20.755815   19.675764 H          1 MOL1         0.3726
       4    H3      19.687962   22.000965   20.429373 H          1 MOL1         0.3726
       5    C1      19.932238   20.152239   21.442549 C.3        1 MOL1         0.0314
       6    H4      20.174449   20.637703   22.391794 H          1 MOL1         0.0999
       7    H5      20.867754   19.927560   20.923735 H          1 MOL1         0.0999
       8    C2      19.160444   18.846120   21.711520 C.3        1 MOL1        -0.1308
       9    H6      18.204910   19.086184   22.196496 H          1 MOL1         0.1025
      10    H7      18.915721   18.359400   20.758051 H          1 MOL1         0.1025
      11    C3      19.947157   17.862452   22.609009 C.3        1 MOL1        -0.1243
      12    H8      19.312154   16.992256   22.826980 H          1 MOL1         0.1025
      13    H9      20.164042   18.336538   23.576679 H          1 MOL1         0.1025
      14    C4      21.264409   17.375944   21.962393 C.3        1 MOL1        -0.2258
      15    H10     21.075981   16.902929   20.989831 H          1 MOL1         0.1036
      16    H11     21.757902   16.635171   22.604832 H          1 MOL1         0.1036
      17    H12     21.968908   18.203399   21.810440 H          1 MOL1         0.1036
@<TRIPOS>BOND
    1     1     2    1
    2     1     3    1
    3     1     4    1
    4     1     5    1
    5     5     6    1
    6     5     7    1
    7     5     8    1
    8     8     9    1
    9     8    10    1
   10     8    11    1
   11    11    12    1
   12    11    13    1
   13    11    14    1
   14    14    15    1
   15    14    16    1
   16    14    17    1
@<TRIPOS>SUBSTRUCTURE
       1 MOL1            1 RESIDUE      1      MOL     
@<SCITEGIC>MOL_PROPERTY
VConf Rank
SciTegic.value.IntegerValue
284

@<SCITEGIC>MOL_PROPERTY
Conf_Id
SciTegic.value.IntegerValue
36

@<SCITEGIC>MOL_PROPERTY
Delta U+W
SciTegic.value.DoubleValue
0.275

@<SCITEGIC>MOL_PROPERTY
U+W
SciTegic.value.DoubleValue
-15.590

@<SCITEGIC>MOL_PROPERTY
Grad RMS
SciTegic.value.DoubleValue
0.000000

@<SCITEGIC>MOL_PROPERTY
U
SciTegic.value.DoubleValue
45.174

@<SCITEGIC>MOL_PROPERTY
W
SciTegic.value.DoubleValue
-60.765

@<SCITEGIC>MOL_PROPERTY
W(PB)
SciTegic.value.DoubleValue
-62.518

@<SCITEGIC>MOL_PROPERTY
W(SA)
SciTegic.value.DoubleValue
1.754

@<SCITEGIC>MOL_PROPERTY
Valence
SciTegic.value.DoubleValue
1.161

@<SCITEGIC>MOL_PROPERTY
Coulomb
SciTegic.value.DoubleValue
43.789

@<SCITEGIC>MOL_PROPERTY
VdW
SciTegic.value.DoubleValue
0.224

@<SCITEGIC>MOL_PROPERTY
VdW6
SciTegic.value.DoubleValue
-2.897

@<SCITEGIC>MOL_PROPERTY
VdW12
SciTegic.value.DoubleValue
3.121

@<SCITEGIC>MOL_PROPERTY
Bond
SciTegic.value.DoubleValue
0.100

@<SCITEGIC>MOL_PROPERTY
Angle
SciTegic.value.DoubleValue
0.500

@<SCITEGIC>MOL_PROPERTY
Pdih
SciTegic.value.DoubleValue
0.561

@<SCITEGIC>MOL_PROPERTY
Idih
SciTegic.value.DoubleValue
0.000

@<SCITEGIC>MOL_PROPERTY
Tether
SciTegic.value.DoubleValue
0.000

@<TRIPOS>MOLECULE
guest-1_confgen4.mol2 : confsearch ligand conformer 285
          17          16           1
SMALL
USER_CHARGES
 
@<TRIPOS>ATOM
       1    N1      20.599337   17.256276   21.748779 N.4        1 MOL1        -0.5891
       2    H1      21.304731   17.947261   22.016741 H          1 MOL1         0.3726
       3    H2      20.819588   16.955295   20.794641 H          1 MOL1         0.3726
       4    H3      20.729497   16.440240   22.355381 H          1 MOL1         0.3726
       5    C1      19.194367   17.817852   21.852337 C.3        1 MOL1         0.0314
       6    H4      18.991568   18.057450   22.899604 H          1 MOL1         0.0999
       7    H5      18.508712   17.021991   21.548989 H          1 MOL1         0.0999
       8    C2      18.941711   19.061129   20.973679 C.3        1 MOL1        -0.1308
       9    H6      19.373397   18.909607   19.975472 H          1 MOL1         0.1025
      10    H7      17.857652   19.149765   20.822669 H          1 MOL1         0.1025
      11    C3      19.448332   20.393020   21.583686 C.3        1 MOL1        -0.1243
      12    H8      18.961019   20.564164   22.553870 H          1 MOL1         0.1025
      13    H9      19.125374   21.217025   20.931994 H          1 MOL1         0.1025
      14    C4      20.982114   20.474274   21.756296 C.3        1 MOL1        -0.2258
      15    H10     21.332851   19.810405   22.555006 H          1 MOL1         0.1036
      16    H11     21.280587   21.494380   22.030982 H          1 MOL1         0.1036
      17    H12     21.502361   20.214582   20.825138 H          1 MOL1         0.1036
@<TRIPOS>BOND
    1     1     2    1
    2     1     3    1
    3     1     4    1
    4     1     5    1
    5     5     6    1
    6     5     7    1
    7     5     8    1
    8     8     9    1
    9     8    10    1
   10     8    11    1
   11    11    12    1
   12    11    13    1
   13    11    14    1
   14    14    15    1
   15    14    16    1
   16    14    17    1
@<TRIPOS>SUBSTRUCTURE
       1 MOL1            1 RESIDUE      1      MOL     
@<SCITEGIC>MOL_PROPERTY
VConf Rank
SciTegic.value.IntegerValue
285

@<SCITEGIC>MOL_PROPERTY
Conf_Id
SciTegic.value.IntegerValue
19

@<SCITEGIC>MOL_PROPERTY
Delta U+W
SciTegic.value.DoubleValue
2.662

@<SCITEGIC>MOL_PROPERTY
U+W
SciTegic.value.DoubleValue
-13.203

@<SCITEGIC>MOL_PROPERTY
Grad RMS
SciTegic.value.DoubleValue
0.000000

@<SCITEGIC>MOL_PROPERTY
U
SciTegic.value.DoubleValue
47.423

@<SCITEGIC>MOL_PROPERTY
W
SciTegic.value.DoubleValue
-60.626

@<SCITEGIC>MOL_PROPERTY
W(PB)
SciTegic.value.DoubleValue
-62.328

@<SCITEGIC>MOL_PROPERTY
W(SA)
SciTegic.value.DoubleValue
1.702

@<SCITEGIC>MOL_PROPERTY
Valence
SciTegic.value.DoubleValue
2.414

@<SCITEGIC>MOL_PROPERTY
Coulomb
SciTegic.value.DoubleValue
44.831

@<SCITEGIC>MOL_PROPERTY
VdW
SciTegic.value.DoubleValue
0.178

@<SCITEGIC>MOL_PROPERTY
VdW6
SciTegic.value.DoubleValue
-3.743

@<SCITEGIC>MOL_PROPERTY
VdW12
SciTegic.value.DoubleValue
3.921

@<SCITEGIC>MOL_PROPERTY
Bond
SciTegic.value.DoubleValue
0.138

@<SCITEGIC>MOL_PROPERTY
Angle
SciTegic.value.DoubleValue
0.941

@<SCITEGIC>MOL_PROPERTY
Pdih
SciTegic.value.DoubleValue
1.335

@<SCITEGIC>MOL_PROPERTY
Idih
SciTegic.value.DoubleValue
0.000

@<SCITEGIC>MOL_PROPERTY
Tether
SciTegic.value.DoubleValue
0.000

@<TRIPOS>MOLECULE
guest-1_confgen4.mol2 : confsearch ligand conformer 286
          17          16           1
SMALL
USER_CHARGES
 
@<TRIPOS>ATOM
       1    N1      19.660288   20.703542   22.443309 N.4        1 MOL1        -0.5891
       2    H1      18.996632   21.390460   22.815505 H          1 MOL1         0.3726
       3    H2      20.577611   21.159025   22.420210 H          1 MOL1         0.3726
       4    H3      19.719650   19.941674   23.123661 H          1 MOL1         0.3726
       5    C1      19.245101   20.202827   21.073294 C.3        1 MOL1         0.0314
       6    H4      19.208485   21.073072   20.412333 H          1 MOL1         0.0999
       7    H5      18.235165   19.790253   21.144800 H          1 MOL1         0.0999
       8    C2      20.197427   19.150679   20.466935 C.3        1 MOL1        -0.1308
       9    H6      20.041068   19.144360   19.380032 H          1 MOL1         0.1025
      10    H7      21.240970   19.456529   20.619260 H          1 MOL1         0.1025
      11    C3      19.976881   17.707747   20.988481 C.3        1 MOL1        -0.1243
      12    H8      20.628830   17.030545   20.418964 H          1 MOL1         0.1025
      13    H9      18.946899   17.390309   20.773096 H          1 MOL1         0.1025
      14    C4      20.269018   17.521021   22.494691 C.3        1 MOL1        -0.2258
      15    H10     21.257685   17.916914   22.761072 H          1 MOL1         0.1036
      16    H11     20.256143   16.454720   22.755443 H          1 MOL1         0.1036
      17    H12     19.511359   18.013169   23.115517 H          1 MOL1         0.1036
@<TRIPOS>BOND
    1     1     2    1
    2     1     3    1
    3     1     4    1
    4     1     5    1
    5     5     6    1
    6     5     7    1
    7     5     8    1
    8     8     9    1
    9     8    10    1
   10     8    11    1
   11    11    12    1
   12    11    13    1
   13    11    14    1
   14    14    15    1
   15    14    16    1
   16    14    17    1
@<TRIPOS>SUBSTRUCTURE
       1 MOL1            1 RESIDUE      1      MOL     
@<SCITEGIC>MOL_PROPERTY
VConf Rank
SciTegic.value.IntegerValue
286

@<SCITEGIC>MOL_PROPERTY
Conf_Id
SciTegic.value.IntegerValue
44

@<SCITEGIC>MOL_PROPERTY
Delta U+W
SciTegic.value.DoubleValue
2.712

@<SCITEGIC>MOL_PROPERTY
U+W
SciTegic.value.DoubleValue
-13.153

@<SCITEGIC>MOL_PROPERTY
Grad RMS
SciTegic.value.DoubleValue
0.000000

@<SCITEGIC>MOL_PROPERTY
U
SciTegic.value.DoubleValue
47.423

@<SCITEGIC>MOL_PROPERTY
W
SciTegic.value.DoubleValue
-60.576

@<SCITEGIC>MOL_PROPERTY
W(PB)
SciTegic.value.DoubleValue
-62.262

@<SCITEGIC>MOL_PROPERTY
W(SA)
SciTegic.value.DoubleValue
1.687

@<SCITEGIC>MOL_PROPERTY
Valence
SciTegic.value.DoubleValue
2.414

@<SCITEGIC>MOL_PROPERTY
Coulomb
SciTegic.value.DoubleValue
44.831

@<SCITEGIC>MOL_PROPERTY
VdW
SciTegic.value.DoubleValue
0.178

@<SCITEGIC>MOL_PROPERTY
VdW6
SciTegic.value.DoubleValue
-3.743

@<SCITEGIC>MOL_PROPERTY
VdW12
SciTegic.value.DoubleValue
3.922

@<SCITEGIC>MOL_PROPERTY
Bond
SciTegic.value.DoubleValue
0.138

@<SCITEGIC>MOL_PROPERTY
Angle
SciTegic.value.DoubleValue
0.941

@<SCITEGIC>MOL_PROPERTY
Pdih
SciTegic.value.DoubleValue
1.335

@<SCITEGIC>MOL_PROPERTY
Idih
SciTegic.value.DoubleValue
0.000

@<SCITEGIC>MOL_PROPERTY
Tether
SciTegic.value.DoubleValue
0.000

@<TRIPOS>MOLECULE
guest-1_confgen4.mol2 : confsearch ligand conformer 287
          17          16           1
SMALL
USER_CHARGES
 
@<TRIPOS>ATOM
       1    N1      20.465451   20.878657   21.087620 N.4        1 MOL1        -0.5891
       2    H1      21.322131   20.326491   21.185899 H          1 MOL1         0.3726
       3    H2      20.424524   21.518899   21.886240 H          1 MOL1         0.3726
       4    H3      20.576554   21.456502   20.248324 H          1 MOL1         0.3726
       5    C1      19.234655   19.996414   21.006090 C.3        1 MOL1         0.0314
       6    H4      19.329188   19.362851   20.120389 H          1 MOL1         0.0999
       7    H5      18.367332   20.647094   20.865000 H          1 MOL1         0.0999
       8    C2      19.015366   19.116533   22.254145 C.3        1 MOL1        -0.1308
       9    H6      18.880989   19.762817   23.131646 H          1 MOL1         0.1025
      10    H7      18.073599   18.564800   22.133850 H          1 MOL1         0.1025
      11    C3      20.162797   18.112119   22.526377 C.3        1 MOL1        -0.1243
      12    H8      19.926696   17.543566   23.436821 H          1 MOL1         0.1025
      13    H9      21.094984   18.652570   22.739905 H          1 MOL1         0.1025
      14    C4      20.390165   17.122186   21.360987 C.3        1 MOL1        -0.2258
      15    H10     19.471343   16.568120   21.128942 H          1 MOL1         0.1036
      16    H11     21.165085   16.390251   21.623168 H          1 MOL1         0.1036
      17    H12     20.717784   17.638892   20.450147 H          1 MOL1         0.1036
@<TRIPOS>BOND
    1     1     2    1
    2     1     3    1
    3     1     4    1
    4     1     5    1
    5     5     6    1
    6     5     7    1
    7     5     8    1
    8     8     9    1
    9     8    10    1
   10     8    11    1
   11    11    12    1
   12    11    13    1
   13    11    14    1
   14    14    15    1
   15    14    16    1
   16    14    17    1
@<TRIPOS>SUBSTRUCTURE
       1 MOL1            1 RESIDUE      1      MOL     
@<SCITEGIC>MOL_PROPERTY
VConf Rank
SciTegic.value.IntegerValue
287

@<SCITEGIC>MOL_PROPERTY
Conf_Id
SciTegic.value.IntegerValue
1

@<SCITEGIC>MOL_PROPERTY
Delta U+W
SciTegic.value.DoubleValue
0.685

@<SCITEGIC>MOL_PROPERTY
U+W
SciTegic.value.DoubleValue
-15.179

@<SCITEGIC>MOL_PROPERTY
Grad RMS
SciTegic.value.DoubleValue
0.000000

@<SCITEGIC>MOL_PROPERTY
U
SciTegic.value.DoubleValue
45.697

@<SCITEGIC>MOL_PROPERTY
W
SciTegic.value.DoubleValue
-60.876

@<SCITEGIC>MOL_PROPERTY
W(PB)
SciTegic.value.DoubleValue
-62.586

@<SCITEGIC>MOL_PROPERTY
W(SA)
SciTegic.value.DoubleValue
1.710

@<SCITEGIC>MOL_PROPERTY
Valence
SciTegic.value.DoubleValue
1.263

@<SCITEGIC>MOL_PROPERTY
Coulomb
SciTegic.value.DoubleValue
44.179

@<SCITEGIC>MOL_PROPERTY
VdW
SciTegic.value.DoubleValue
0.255

@<SCITEGIC>MOL_PROPERTY
VdW6
SciTegic.value.DoubleValue
-3.552

@<SCITEGIC>MOL_PROPERTY
VdW12
SciTegic.value.DoubleValue
3.807

@<SCITEGIC>MOL_PROPERTY
Bond
SciTegic.value.DoubleValue
0.125

@<SCITEGIC>MOL_PROPERTY
Angle
SciTegic.value.DoubleValue
0.616

@<SCITEGIC>MOL_PROPERTY
Pdih
SciTegic.value.DoubleValue
0.521

@<SCITEGIC>MOL_PROPERTY
Idih
SciTegic.value.DoubleValue
0.000

@<SCITEGIC>MOL_PROPERTY
Tether
SciTegic.value.DoubleValue
0.000

@<TRIPOS>MOLECULE
guest-1_confgen4.mol2 : confsearch ligand conformer 288
          17          16           1
SMALL
USER_CHARGES
 
@<TRIPOS>ATOM
       1    N1      21.199246   20.066271   20.481575 N.4        1 MOL1        -0.5891
       2    H1      22.004252   19.497280   20.203023 H          1 MOL1         0.3726
       3    H2      21.351297   20.350608   21.453420 H          1 MOL1         0.3726
       4    H3      21.226119   20.918561   19.912763 H          1 MOL1         0.3726
       5    C1      19.891500   19.317004   20.313473 C.3        1 MOL1         0.0314
       6    H4      19.777900   19.079441   19.252249 H          1 MOL1         0.0999
       7    H5      19.076874   19.987795   20.598484 H          1 MOL1         0.0999
       8    C2      19.808043   18.016860   21.139657 C.3        1 MOL1        -0.1308
       9    H6      18.860699   17.512836   20.906629 H          1 MOL1         0.1025
      10    H7      20.605022   17.333520   20.817760 H          1 MOL1         0.1025
      11    C3      19.905500   18.235580   22.670089 C.3        1 MOL1        -0.1243
      12    H8      20.886760   18.655520   22.929770 H          1 MOL1         0.1025
      13    H9      19.851556   17.258899   23.171177 H          1 MOL1         0.1025
      14    C4      18.786177   19.146657   23.224032 C.3        1 MOL1        -0.2258
      15    H10     18.855447   19.220492   24.317064 H          1 MOL1         0.1036
      16    H11     17.793914   18.746795   22.977879 H          1 MOL1         0.1036
      17    H12     18.855681   20.163919   22.818698 H          1 MOL1         0.1036
@<TRIPOS>BOND
    1     1     2    1
    2     1     3    1
    3     1     4    1
    4     1     5    1
    5     5     6    1
    6     5     7    1
    7     5     8    1
    8     8     9    1
    9     8    10    1
   10     8    11    1
   11    11    12    1
   12    11    13    1
   13    11    14    1
   14    14    15    1
   15    14    16    1
   16    14    17    1
@<TRIPOS>SUBSTRUCTURE
       1 MOL1            1 RESIDUE      1      MOL     
@<SCITEGIC>MOL_PROPERTY
VConf Rank
SciTegic.value.IntegerValue
288

@<SCITEGIC>MOL_PROPERTY
Conf_Id
SciTegic.value.IntegerValue
43

@<SCITEGIC>MOL_PROPERTY
Delta U+W
SciTegic.value.DoubleValue
0.642

@<SCITEGIC>MOL_PROPERTY
U+W
SciTegic.value.DoubleValue
-15.222

@<SCITEGIC>MOL_PROPERTY
Grad RMS
SciTegic.value.DoubleValue
0.000000

@<SCITEGIC>MOL_PROPERTY
U
SciTegic.value.DoubleValue
45.697

@<SCITEGIC>MOL_PROPERTY
W
SciTegic.value.DoubleValue
-60.919

@<SCITEGIC>MOL_PROPERTY
W(PB)
SciTegic.value.DoubleValue
-62.631

@<SCITEGIC>MOL_PROPERTY
W(SA)
SciTegic.value.DoubleValue
1.712

@<SCITEGIC>MOL_PROPERTY
Valence
SciTegic.value.DoubleValue
1.262

@<SCITEGIC>MOL_PROPERTY
Coulomb
SciTegic.value.DoubleValue
44.179

@<SCITEGIC>MOL_PROPERTY
VdW
SciTegic.value.DoubleValue
0.255

@<SCITEGIC>MOL_PROPERTY
VdW6
SciTegic.value.DoubleValue
-3.552

@<SCITEGIC>MOL_PROPERTY
VdW12
SciTegic.value.DoubleValue
3.807

@<SCITEGIC>MOL_PROPERTY
Bond
SciTegic.value.DoubleValue
0.125

@<SCITEGIC>MOL_PROPERTY
Angle
SciTegic.value.DoubleValue
0.616

@<SCITEGIC>MOL_PROPERTY
Pdih
SciTegic.value.DoubleValue
0.521

@<SCITEGIC>MOL_PROPERTY
Idih
SciTegic.value.DoubleValue
0.000

@<SCITEGIC>MOL_PROPERTY
Tether
SciTegic.value.DoubleValue
0.000

@<TRIPOS>MOLECULE
guest-1_confgen4.mol2 : confsearch ligand conformer 289
          17          16           1
SMALL
USER_CHARGES
 
@<TRIPOS>ATOM
       1    N1      19.642002   20.669301   19.626962 N.4        1 MOL1        -0.5891
       2    H1      19.352555   21.489487   20.168451 H          1 MOL1         0.3726
       3    H2      18.790993   20.245489   19.245040 H          1 MOL1         0.3726
       4    H3      20.183487   21.017166   18.829031 H          1 MOL1         0.3726
       5    C1      20.438636   19.688395   20.463953 C.3        1 MOL1         0.0314
       6    H4      21.342477   20.196686   20.810700 H          1 MOL1         0.0999
       7    H5      20.738658   18.859000   19.817721 H          1 MOL1         0.0999
       8    C2      19.654518   19.145265   21.672435 C.3        1 MOL1        -0.1308
       9    H6      19.341613   19.982166   22.310933 H          1 MOL1         0.1025
      10    H7      18.739958   18.648958   21.321368 H          1 MOL1         0.1025
      11    C3      20.501185   18.151031   22.497162 C.3        1 MOL1        -0.1243
      12    H8      21.418405   18.646304   22.846070 H          1 MOL1         0.1025
      13    H9      20.817423   17.314692   21.857744 H          1 MOL1         0.1025
      14    C4      19.721104   17.602007   23.711246 C.3        1 MOL1        -0.2258
      15    H10     20.339399   16.898262   24.283525 H          1 MOL1         0.1036
      16    H11     18.815159   17.070647   23.391673 H          1 MOL1         0.1036
      17    H12     19.420835   18.412788   24.387767 H          1 MOL1         0.1036
@<TRIPOS>BOND
    1     1     2    1
    2     1     3    1
    3     1     4    1
    4     1     5    1
    5     5     6    1
    6     5     7    1
    7     5     8    1
    8     8     9    1
    9     8    10    1
   10     8    11    1
   11    11    12    1
   12    11    13    1
   13    11    14    1
   14    14    15    1
   15    14    16    1
   16    14    17    1
@<TRIPOS>SUBSTRUCTURE
       1 MOL1            1 RESIDUE      1      MOL     
@<SCITEGIC>MOL_PROPERTY
VConf Rank
SciTegic.value.IntegerValue
289

@<SCITEGIC>MOL_PROPERTY
Conf_Id
SciTegic.value.IntegerValue
7

@<SCITEGIC>MOL_PROPERTY
Delta U+W
SciTegic.value.DoubleValue
0.000

@<SCITEGIC>MOL_PROPERTY
U+W
SciTegic.value.DoubleValue
-15.865

@<SCITEGIC>MOL_PROPERTY
Grad RMS
SciTegic.value.DoubleValue
0.000000

@<SCITEGIC>MOL_PROPERTY
U
SciTegic.value.DoubleValue
44.664

@<SCITEGIC>MOL_PROPERTY
W
SciTegic.value.DoubleValue
-60.529

@<SCITEGIC>MOL_PROPERTY
W(PB)
SciTegic.value.DoubleValue
-62.309

@<SCITEGIC>MOL_PROPERTY
W(SA)
SciTegic.value.DoubleValue
1.780

@<SCITEGIC>MOL_PROPERTY
Valence
SciTegic.value.DoubleValue
0.872

@<SCITEGIC>MOL_PROPERTY
Coulomb
SciTegic.value.DoubleValue
43.648

@<SCITEGIC>MOL_PROPERTY
VdW
SciTegic.value.DoubleValue
0.144

@<SCITEGIC>MOL_PROPERTY
VdW6
SciTegic.value.DoubleValue
-2.370

@<SCITEGIC>MOL_PROPERTY
VdW12
SciTegic.value.DoubleValue
2.515

@<SCITEGIC>MOL_PROPERTY
Bond
SciTegic.value.DoubleValue
0.080

@<SCITEGIC>MOL_PROPERTY
Angle
SciTegic.value.DoubleValue
0.376

@<SCITEGIC>MOL_PROPERTY
Pdih
SciTegic.value.DoubleValue
0.416

@<SCITEGIC>MOL_PROPERTY
Idih
SciTegic.value.DoubleValue
0.000

@<SCITEGIC>MOL_PROPERTY
Tether
SciTegic.value.DoubleValue
0.000

@<TRIPOS>MOLECULE
guest-1_confgen4.mol2 : confsearch ligand conformer 290
          17          16           1
SMALL
USER_CHARGES
 
@<TRIPOS>ATOM
       1    N1      19.451479   16.756011   21.268114 N.4        1 MOL1        -0.5891
       2    H1      18.631539   16.676034   20.659058 H          1 MOL1         0.3726
       3    H2      19.142828   16.531555   22.218903 H          1 MOL1         0.3726
       4    H3      20.103349   16.016928   20.985863 H          1 MOL1         0.3726
       5    C1      20.087202   18.129565   21.187091 C.3        1 MOL1         0.0314
       6    H4      20.418023   18.288613   20.157204 H          1 MOL1         0.0999
       7    H5      20.968090   18.130621   21.834295 H          1 MOL1         0.0999
       8    C2      19.133561   19.265143   21.605408 C.3        1 MOL1        -0.1308
       9    H6      18.234533   19.230267   20.975797 H          1 MOL1         0.1025
      10    H7      18.799985   19.104481   22.639237 H          1 MOL1         0.1025
      11    C3      19.781150   20.664120   21.480919 C.3        1 MOL1        -0.1243
      12    H8      19.027142   21.428626   21.715407 H          1 MOL1         0.1025
      13    H9      20.085590   20.839932   20.439483 H          1 MOL1         0.1025
      14    C4      20.997592   20.852268   22.416240 C.3        1 MOL1        -0.2258
      15    H10     20.721346   20.676078   23.463986 H          1 MOL1         0.1036
      16    H11     21.386800   21.875870   22.340328 H          1 MOL1         0.1036
      17    H12     21.815173   20.167660   22.157465 H          1 MOL1         0.1036
@<TRIPOS>BOND
    1     1     2    1
    2     1     3    1
    3     1     4    1
    4     1     5    1
    5     5     6    1
    6     5     7    1
    7     5     8    1
    8     8     9    1
    9     8    10    1
   10     8    11    1
   11    11    12    1
   12    11    13    1
   13    11    14    1
   14    14    15    1
   15    14    16    1
   16    14    17    1
@<TRIPOS>SUBSTRUCTURE
       1 MOL1            1 RESIDUE      1      MOL     
@<SCITEGIC>MOL_PROPERTY
VConf Rank
SciTegic.value.IntegerValue
290

@<SCITEGIC>MOL_PROPERTY
Conf_Id
SciTegic.value.IntegerValue
36

@<SCITEGIC>MOL_PROPERTY
Delta U+W
SciTegic.value.DoubleValue
0.275

@<SCITEGIC>MOL_PROPERTY
U+W
SciTegic.value.DoubleValue
-15.590

@<SCITEGIC>MOL_PROPERTY
Grad RMS
SciTegic.value.DoubleValue
0.000000

@<SCITEGIC>MOL_PROPERTY
U
SciTegic.value.DoubleValue
45.174

@<SCITEGIC>MOL_PROPERTY
W
SciTegic.value.DoubleValue
-60.765

@<SCITEGIC>MOL_PROPERTY
W(PB)
SciTegic.value.DoubleValue
-62.518

@<SCITEGIC>MOL_PROPERTY
W(SA)
SciTegic.value.DoubleValue
1.754

@<SCITEGIC>MOL_PROPERTY
Valence
SciTegic.value.DoubleValue
1.161

@<SCITEGIC>MOL_PROPERTY
Coulomb
SciTegic.value.DoubleValue
43.789

@<SCITEGIC>MOL_PROPERTY
VdW
SciTegic.value.DoubleValue
0.224

@<SCITEGIC>MOL_PROPERTY
VdW6
SciTegic.value.DoubleValue
-2.897

@<SCITEGIC>MOL_PROPERTY
VdW12
SciTegic.value.DoubleValue
3.121

@<SCITEGIC>MOL_PROPERTY
Bond
SciTegic.value.DoubleValue
0.100

@<SCITEGIC>MOL_PROPERTY
Angle
SciTegic.value.DoubleValue
0.500

@<SCITEGIC>MOL_PROPERTY
Pdih
SciTegic.value.DoubleValue
0.561

@<SCITEGIC>MOL_PROPERTY
Idih
SciTegic.value.DoubleValue
0.000

@<SCITEGIC>MOL_PROPERTY
Tether
SciTegic.value.DoubleValue
0.000

@<TRIPOS>MOLECULE
guest-1_confgen4.mol2 : confsearch ligand conformer 291
          17          16           1
SMALL
USER_CHARGES
 
@<TRIPOS>ATOM
       1    N1      18.774903   19.924113   22.707714 N.4        1 MOL1        -0.5891
       2    H1      18.788060   20.318263   21.763618 H          1 MOL1         0.3726
       3    H2      19.363041   20.524753   23.293209 H          1 MOL1         0.3726
       4    H3      17.816138   20.013170   23.059369 H          1 MOL1         0.3726
       5    C1      19.249681   18.483834   22.722360 C.3        1 MOL1         0.0314
       6    H4      18.548716   17.880291   22.139535 H          1 MOL1         0.0999
       7    H5      19.206464   18.143422   23.760527 H          1 MOL1         0.0999
       8    C2      20.682918   18.282795   22.186610 C.3        1 MOL1        -0.1308
       9    H6      21.347269   19.057862   22.591132 H          1 MOL1         0.1025
      10    H7      21.057360   17.329058   22.581612 H          1 MOL1         0.1025
      11    C3      20.790357   18.233520   20.641057 C.3        1 MOL1        -0.1243
      12    H8      20.169981   17.413221   20.253420 H          1 MOL1         0.1025
      13    H9      21.826658   17.982946   20.374069 H          1 MOL1         0.1025
      14    C4      20.404142   19.551077   19.931294 C.3        1 MOL1        -0.2258
      15    H10     19.326030   19.739863   19.992216 H          1 MOL1         0.1036
      16    H11     20.662355   19.499016   18.865568 H          1 MOL1         0.1036
      17    H12     20.939126   20.407512   20.361951 H          1 MOL1         0.1036
@<TRIPOS>BOND
    1     1     2    1
    2     1     3    1
    3     1     4    1
    4     1     5    1
    5     5     6    1
    6     5     7    1
    7     5     8    1
    8     8     9    1
    9     8    10    1
   10     8    11    1
   11    11    12    1
   12    11    13    1
   13    11    14    1
   14    14    15    1
   15    14    16    1
   16    14    17    1
@<TRIPOS>SUBSTRUCTURE
       1 MOL1            1 RESIDUE      1      MOL     
@<SCITEGIC>MOL_PROPERTY
VConf Rank
SciTegic.value.IntegerValue
291

@<SCITEGIC>MOL_PROPERTY
Conf_Id
SciTegic.value.IntegerValue
19

@<SCITEGIC>MOL_PROPERTY
Delta U+W
SciTegic.value.DoubleValue
2.662

@<SCITEGIC>MOL_PROPERTY
U+W
SciTegic.value.DoubleValue
-13.203

@<SCITEGIC>MOL_PROPERTY
Grad RMS
SciTegic.value.DoubleValue
0.000000

@<SCITEGIC>MOL_PROPERTY
U
SciTegic.value.DoubleValue
47.423

@<SCITEGIC>MOL_PROPERTY
W
SciTegic.value.DoubleValue
-60.626

@<SCITEGIC>MOL_PROPERTY
W(PB)
SciTegic.value.DoubleValue
-62.328

@<SCITEGIC>MOL_PROPERTY
W(SA)
SciTegic.value.DoubleValue
1.702

@<SCITEGIC>MOL_PROPERTY
Valence
SciTegic.value.DoubleValue
2.414

@<SCITEGIC>MOL_PROPERTY
Coulomb
SciTegic.value.DoubleValue
44.831

@<SCITEGIC>MOL_PROPERTY
VdW
SciTegic.value.DoubleValue
0.178

@<SCITEGIC>MOL_PROPERTY
VdW6
SciTegic.value.DoubleValue
-3.743

@<SCITEGIC>MOL_PROPERTY
VdW12
SciTegic.value.DoubleValue
3.921

@<SCITEGIC>MOL_PROPERTY
Bond
SciTegic.value.DoubleValue
0.138

@<SCITEGIC>MOL_PROPERTY
Angle
SciTegic.value.DoubleValue
0.941

@<SCITEGIC>MOL_PROPERTY
Pdih
SciTegic.value.DoubleValue
1.335

@<SCITEGIC>MOL_PROPERTY
Idih
SciTegic.value.DoubleValue
0.000

@<SCITEGIC>MOL_PROPERTY
Tether
SciTegic.value.DoubleValue
0.000

@<TRIPOS>MOLECULE
guest-1_confgen4.mol2 : confsearch ligand conformer 292
          17          16           1
SMALL
USER_CHARGES
 
@<TRIPOS>ATOM
       1    N1      21.128296   20.344548   22.102554 N.4        1 MOL1        -0.5891
       2    H1      21.564415   21.245136   21.879922 H          1 MOL1         0.3726
       3    H2      21.691422   19.916992   22.843881 H          1 MOL1         0.3726
       4    H3      20.207834   20.545280   22.501678 H          1 MOL1         0.3726
       5    C1      21.029007   19.448914   20.882710 C.3        1 MOL1         0.0314
       6    H4      22.048380   19.284002   20.523241 H          1 MOL1         0.0999
       7    H5      20.478105   19.982112   20.103281 H          1 MOL1         0.0999
       8    C2      20.363405   18.082720   21.151223 C.3        1 MOL1        -0.1308
       9    H6      20.676012   17.395433   20.353878 H          1 MOL1         0.1025
      10    H7      20.748647   17.654503   22.086075 H          1 MOL1         0.1025
      11    C3      18.813822   18.115636   21.171584 C.3        1 MOL1        -0.1243
      12    H8      18.446987   17.083655   21.263438 H          1 MOL1         0.1025
      13    H9      18.439334   18.486418   20.207063 H          1 MOL1         0.1025
      14    C4      18.207512   18.957287   22.317399 C.3        1 MOL1        -0.2258
      15    H10     18.633965   18.674354   23.288604 H          1 MOL1         0.1036
      16    H11     17.122382   18.800173   22.371860 H          1 MOL1         0.1036
      17    H12     18.369688   20.029685   22.158212 H          1 MOL1         0.1036
@<TRIPOS>BOND
    1     1     2    1
    2     1     3    1
    3     1     4    1
    4     1     5    1
    5     5     6    1
    6     5     7    1
    7     5     8    1
    8     8     9    1
    9     8    10    1
   10     8    11    1
   11    11    12    1
   12    11    13    1
   13    11    14    1
   14    14    15    1
   15    14    16    1
   16    14    17    1
@<TRIPOS>SUBSTRUCTURE
       1 MOL1            1 RESIDUE      1      MOL     
@<SCITEGIC>MOL_PROPERTY
VConf Rank
SciTegic.value.IntegerValue
292

@<SCITEGIC>MOL_PROPERTY
Conf_Id
SciTegic.value.IntegerValue
44

@<SCITEGIC>MOL_PROPERTY
Delta U+W
SciTegic.value.DoubleValue
2.712

@<SCITEGIC>MOL_PROPERTY
U+W
SciTegic.value.DoubleValue
-13.153

@<SCITEGIC>MOL_PROPERTY
Grad RMS
SciTegic.value.DoubleValue
0.000000

@<SCITEGIC>MOL_PROPERTY
U
SciTegic.value.DoubleValue
47.423

@<SCITEGIC>MOL_PROPERTY
W
SciTegic.value.DoubleValue
-60.576

@<SCITEGIC>MOL_PROPERTY
W(PB)
SciTegic.value.DoubleValue
-62.262

@<SCITEGIC>MOL_PROPERTY
W(SA)
SciTegic.value.DoubleValue
1.687

@<SCITEGIC>MOL_PROPERTY
Valence
SciTegic.value.DoubleValue
2.414

@<SCITEGIC>MOL_PROPERTY
Coulomb
SciTegic.value.DoubleValue
44.831

@<SCITEGIC>MOL_PROPERTY
VdW
SciTegic.value.DoubleValue
0.178

@<SCITEGIC>MOL_PROPERTY
VdW6
SciTegic.value.DoubleValue
-3.743

@<SCITEGIC>MOL_PROPERTY
VdW12
SciTegic.value.DoubleValue
3.922

@<SCITEGIC>MOL_PROPERTY
Bond
SciTegic.value.DoubleValue
0.138

@<SCITEGIC>MOL_PROPERTY
Angle
SciTegic.value.DoubleValue
0.941

@<SCITEGIC>MOL_PROPERTY
Pdih
SciTegic.value.DoubleValue
1.335

@<SCITEGIC>MOL_PROPERTY
Idih
SciTegic.value.DoubleValue
0.000

@<SCITEGIC>MOL_PROPERTY
Tether
SciTegic.value.DoubleValue
0.000

@<TRIPOS>MOLECULE
guest-1_confgen4.mol2 : confsearch ligand conformer 293
          17          16           1
SMALL
USER_CHARGES
 
@<TRIPOS>ATOM
       1    N1      20.958755   18.182270   20.139485 N.4        1 MOL1        -0.5891
       2    H1      20.234662   17.516469   20.423820 H          1 MOL1         0.3726
       3    H2      21.854375   17.818959   20.478967 H          1 MOL1         0.3726
       4    H3      20.998327   18.162057   19.115428 H          1 MOL1         0.3726
       5    C1      20.677780   19.576568   20.665644 C.3        1 MOL1         0.0314
       6    H4      19.727445   19.913549   20.243612 H          1 MOL1         0.0999
       7    H5      21.465636   20.237597   20.294347 H          1 MOL1         0.0999
       8    C2      20.622835   19.661938   22.204998 C.3        1 MOL1        -0.1308
       9    H6      21.594760   19.360472   22.617589 H          1 MOL1         0.1025
      10    H7      20.480650   20.711815   22.493693 H          1 MOL1         0.1025
      11    C3      19.504059   18.802047   22.844127 C.3        1 MOL1        -0.1243
      12    H8      19.551827   18.914430   23.936369 H          1 MOL1         0.1025
      13    H9      19.683385   17.737517   22.640974 H          1 MOL1         0.1025
      14    C4      18.088808   19.193170   22.360510 C.3        1 MOL1        -0.2258
      15    H10     17.885002   20.254374   22.553839 H          1 MOL1         0.1036
      16    H11     17.325881   18.604706   22.886458 H          1 MOL1         0.1036
      17    H12     17.964456   19.010823   21.285692 H          1 MOL1         0.1036
@<TRIPOS>BOND
    1     1     2    1
    2     1     3    1
    3     1     4    1
    4     1     5    1
    5     5     6    1
    6     5     7    1
    7     5     8    1
    8     8     9    1
    9     8    10    1
   10     8    11    1
   11    11    12    1
   12    11    13    1
   13    11    14    1
   14    14    15    1
   15    14    16    1
   16    14    17    1
@<TRIPOS>SUBSTRUCTURE
       1 MOL1            1 RESIDUE      1      MOL     
@<SCITEGIC>MOL_PROPERTY
VConf Rank
SciTegic.value.IntegerValue
293

@<SCITEGIC>MOL_PROPERTY
Conf_Id
SciTegic.value.IntegerValue
1

@<SCITEGIC>MOL_PROPERTY
Delta U+W
SciTegic.value.DoubleValue
0.685

@<SCITEGIC>MOL_PROPERTY
U+W
SciTegic.value.DoubleValue
-15.179

@<SCITEGIC>MOL_PROPERTY
Grad RMS
SciTegic.value.DoubleValue
0.000000

@<SCITEGIC>MOL_PROPERTY
U
SciTegic.value.DoubleValue
45.697

@<SCITEGIC>MOL_PROPERTY
W
SciTegic.value.DoubleValue
-60.876

@<SCITEGIC>MOL_PROPERTY
W(PB)
SciTegic.value.DoubleValue
-62.586

@<SCITEGIC>MOL_PROPERTY
W(SA)
SciTegic.value.DoubleValue
1.710

@<SCITEGIC>MOL_PROPERTY
Valence
SciTegic.value.DoubleValue
1.263

@<SCITEGIC>MOL_PROPERTY
Coulomb
SciTegic.value.DoubleValue
44.179

@<SCITEGIC>MOL_PROPERTY
VdW
SciTegic.value.DoubleValue
0.255

@<SCITEGIC>MOL_PROPERTY
VdW6
SciTegic.value.DoubleValue
-3.552

@<SCITEGIC>MOL_PROPERTY
VdW12
SciTegic.value.DoubleValue
3.807

@<SCITEGIC>MOL_PROPERTY
Bond
SciTegic.value.DoubleValue
0.125

@<SCITEGIC>MOL_PROPERTY
Angle
SciTegic.value.DoubleValue
0.616

@<SCITEGIC>MOL_PROPERTY
Pdih
SciTegic.value.DoubleValue
0.521

@<SCITEGIC>MOL_PROPERTY
Idih
SciTegic.value.DoubleValue
0.000

@<SCITEGIC>MOL_PROPERTY
Tether
SciTegic.value.DoubleValue
0.000

@<TRIPOS>MOLECULE
guest-1_confgen4.mol2 : confsearch ligand conformer 294
          17          16           1
SMALL
USER_CHARGES
 
@<TRIPOS>ATOM
       1    N1      19.136653   17.207158   21.623186 N.4        1 MOL1        -0.5891
       2    H1      18.471880   17.095261   22.394505 H          1 MOL1         0.3726
       3    H2      20.077221   17.133263   22.021080 H          1 MOL1         0.3726
       4    H3      19.010333   16.401513   21.002182 H          1 MOL1         0.3726
       5    C1      18.937952   18.520276   20.891000 C.3        1 MOL1         0.0314
       6    H4      17.931861   18.513867   20.462889 H          1 MOL1         0.0999
       7    H5      19.655253   18.561548   20.067240 H          1 MOL1         0.0999
       8    C2      19.103462   19.764580   21.787792 C.3        1 MOL1        -0.1308
       9    H6      18.879561   20.659313   21.191869 H          1 MOL1         0.1025
      10    H7      18.352211   19.734543   22.588084 H          1 MOL1         0.1025
      11    C3      20.513915   19.908239   22.411924 C.3        1 MOL1        -0.1243
      12    H8      20.716806   19.064066   23.084874 H          1 MOL1         0.1025
      13    H9      20.532119   20.808911   23.041498 H          1 MOL1         0.1025
      14    C4      21.636416   20.012233   21.354108 C.3        1 MOL1        -0.2258
      15    H10     22.607538   20.178087   21.838238 H          1 MOL1         0.1036
      16    H11     21.456509   20.850865   20.668982 H          1 MOL1         0.1036
      17    H12     21.716297   19.094317   20.758291 H          1 MOL1         0.1036
@<TRIPOS>BOND
    1     1     2    1
    2     1     3    1
    3     1     4    1
    4     1     5    1
    5     5     6    1
    6     5     7    1
    7     5     8    1
    8     8     9    1
    9     8    10    1
   10     8    11    1
   11    11    12    1
   12    11    13    1
   13    11    14    1
   14    14    15    1
   15    14    16    1
   16    14    17    1
@<TRIPOS>SUBSTRUCTURE
       1 MOL1            1 RESIDUE      1      MOL     
@<SCITEGIC>MOL_PROPERTY
VConf Rank
SciTegic.value.IntegerValue
294

@<SCITEGIC>MOL_PROPERTY
Conf_Id
SciTegic.value.IntegerValue
43

@<SCITEGIC>MOL_PROPERTY
Delta U+W
SciTegic.value.DoubleValue
0.642

@<SCITEGIC>MOL_PROPERTY
U+W
SciTegic.value.DoubleValue
-15.222

@<SCITEGIC>MOL_PROPERTY
Grad RMS
SciTegic.value.DoubleValue
0.000000

@<SCITEGIC>MOL_PROPERTY
U
SciTegic.value.DoubleValue
45.697

@<SCITEGIC>MOL_PROPERTY
W
SciTegic.value.DoubleValue
-60.919

@<SCITEGIC>MOL_PROPERTY
W(PB)
SciTegic.value.DoubleValue
-62.631

@<SCITEGIC>MOL_PROPERTY
W(SA)
SciTegic.value.DoubleValue
1.712

@<SCITEGIC>MOL_PROPERTY
Valence
SciTegic.value.DoubleValue
1.262

@<SCITEGIC>MOL_PROPERTY
Coulomb
SciTegic.value.DoubleValue
44.179

@<SCITEGIC>MOL_PROPERTY
VdW
SciTegic.value.DoubleValue
0.255

@<SCITEGIC>MOL_PROPERTY
VdW6
SciTegic.value.DoubleValue
-3.552

@<SCITEGIC>MOL_PROPERTY
VdW12
SciTegic.value.DoubleValue
3.807

@<SCITEGIC>MOL_PROPERTY
Bond
SciTegic.value.DoubleValue
0.125

@<SCITEGIC>MOL_PROPERTY
Angle
SciTegic.value.DoubleValue
0.616

@<SCITEGIC>MOL_PROPERTY
Pdih
SciTegic.value.DoubleValue
0.521

@<SCITEGIC>MOL_PROPERTY
Idih
SciTegic.value.DoubleValue
0.000

@<SCITEGIC>MOL_PROPERTY
Tether
SciTegic.value.DoubleValue
0.000

@<TRIPOS>MOLECULE
guest-1_confgen4.mol2 : confsearch ligand conformer 295
          17          16           1
SMALL
USER_CHARGES
 
@<TRIPOS>ATOM
       1    N1      17.597774   19.168450   22.609126 N.4        1 MOL1        -0.5891
       2    H1      17.819424   18.738731   23.512403 H          1 MOL1         0.3726
       3    H2      17.171711   18.441219   22.026629 H          1 MOL1         0.3726
       4    H3      16.871536   19.870222   22.785203 H          1 MOL1         0.3726
       5    C1      18.821825   19.776377   21.953778 C.3        1 MOL1         0.0314
       6    H4      19.203267   20.560784   22.613119 H          1 MOL1         0.0999
       7    H5      18.506758   20.240906   21.015445 H          1 MOL1         0.0999
       8    C2      19.933925   18.748959   21.674658 C.3        1 MOL1        -0.1308
       9    H6      20.236916   18.273487   22.617056 H          1 MOL1         0.1025
      10    H7      19.542853   17.954797   21.024767 H          1 MOL1         0.1025
      11    C3      21.160901   19.408750   21.007779 C.3        1 MOL1        -0.1243
      12    H8      21.550803   20.206028   21.656355 H          1 MOL1         0.1025
      13    H9      20.857613   19.887662   20.065980 H          1 MOL1         0.1025
      14    C4      22.280731   18.384124   20.724803 C.3        1 MOL1        -0.2258
      15    H10     23.142546   18.872280   20.251488 H          1 MOL1         0.1036
      16    H11     21.930605   17.592015   20.050131 H          1 MOL1         0.1036
      17    H12     22.629220   17.912853   21.653063 H          1 MOL1         0.1036
@<TRIPOS>BOND
    1     1     2    1
    2     1     3    1
    3     1     4    1
    4     1     5    1
    5     5     6    1
    6     5     7    1
    7     5     8    1
    8     8     9    1
    9     8    10    1
   10     8    11    1
   11    11    12    1
   12    11    13    1
   13    11    14    1
   14    14    15    1
   15    14    16    1
   16    14    17    1
@<TRIPOS>SUBSTRUCTURE
       1 MOL1            1 RESIDUE      1      MOL     
@<SCITEGIC>MOL_PROPERTY
VConf Rank
SciTegic.value.IntegerValue
295

@<SCITEGIC>MOL_PROPERTY
Conf_Id
SciTegic.value.IntegerValue
7

@<SCITEGIC>MOL_PROPERTY
Delta U+W
SciTegic.value.DoubleValue
0.000

@<SCITEGIC>MOL_PROPERTY
U+W
SciTegic.value.DoubleValue
-15.865

@<SCITEGIC>MOL_PROPERTY
Grad RMS
SciTegic.value.DoubleValue
0.000000

@<SCITEGIC>MOL_PROPERTY
U
SciTegic.value.DoubleValue
44.664

@<SCITEGIC>MOL_PROPERTY
W
SciTegic.value.DoubleValue
-60.529

@<SCITEGIC>MOL_PROPERTY
W(PB)
SciTegic.value.DoubleValue
-62.309

@<SCITEGIC>MOL_PROPERTY
W(SA)
SciTegic.value.DoubleValue
1.780

@<SCITEGIC>MOL_PROPERTY
Valence
SciTegic.value.DoubleValue
0.872

@<SCITEGIC>MOL_PROPERTY
Coulomb
SciTegic.value.DoubleValue
43.648

@<SCITEGIC>MOL_PROPERTY
VdW
SciTegic.value.DoubleValue
0.144

@<SCITEGIC>MOL_PROPERTY
VdW6
SciTegic.value.DoubleValue
-2.370

@<SCITEGIC>MOL_PROPERTY
VdW12
SciTegic.value.DoubleValue
2.515

@<SCITEGIC>MOL_PROPERTY
Bond
SciTegic.value.DoubleValue
0.080

@<SCITEGIC>MOL_PROPERTY
Angle
SciTegic.value.DoubleValue
0.376

@<SCITEGIC>MOL_PROPERTY
Pdih
SciTegic.value.DoubleValue
0.416

@<SCITEGIC>MOL_PROPERTY
Idih
SciTegic.value.DoubleValue
0.000

@<SCITEGIC>MOL_PROPERTY
Tether
SciTegic.value.DoubleValue
0.000

@<TRIPOS>MOLECULE
guest-1_confgen4.mol2 : confsearch ligand conformer 296
          17          16           1
SMALL
USER_CHARGES
 
@<TRIPOS>ATOM
       1    N1      18.949993   17.663183   23.298620 N.4        1 MOL1        -0.5891
       2    H1      19.567979   16.859233   23.444927 H          1 MOL1         0.3726
       3    H2      18.150237   17.331877   22.750647 H          1 MOL1         0.3726
       4    H3      18.587979   17.930034   24.219804 H          1 MOL1         0.3726
       5    C1      19.665979   18.813572   22.619409 C.3        1 MOL1         0.0314
       6    H4      20.484090   19.133876   23.270184 H          1 MOL1         0.0999
       7    H5      18.958157   19.641245   22.525685 H          1 MOL1         0.0999
       8    C2      20.223041   18.446305   21.230613 C.3        1 MOL1        -0.1308
       9    H6      20.901661   17.588756   21.330422 H          1 MOL1         0.1025
      10    H7      19.401559   18.123003   20.577519 H          1 MOL1         0.1025
      11    C3      20.984944   19.616188   20.565117 C.3        1 MOL1        -0.1243
      12    H8      21.422665   19.265347   19.619976 H          1 MOL1         0.1025
      13    H9      21.827936   19.919125   21.202122 H          1 MOL1         0.1025
      14    C4      20.083886   20.839583   20.279887 C.3        1 MOL1        -0.2258
      15    H10     19.229219   20.562315   19.649181 H          1 MOL1         0.1036
      16    H11     20.649164   21.619579   19.753509 H          1 MOL1         0.1036
      17    H12     19.696890   21.280553   21.207179 H          1 MOL1         0.1036
@<TRIPOS>BOND
    1     1     2    1
    2     1     3    1
    3     1     4    1
    4     1     5    1
    5     5     6    1
    6     5     7    1
    7     5     8    1
    8     8     9    1
    9     8    10    1
   10     8    11    1
   11    11    12    1
   12    11    13    1
   13    11    14    1
   14    14    15    1
   15    14    16    1
   16    14    17    1
@<TRIPOS>SUBSTRUCTURE
       1 MOL1            1 RESIDUE      1      MOL     
@<SCITEGIC>MOL_PROPERTY
VConf Rank
SciTegic.value.IntegerValue
296

@<SCITEGIC>MOL_PROPERTY
Conf_Id
SciTegic.value.IntegerValue
36

@<SCITEGIC>MOL_PROPERTY
Delta U+W
SciTegic.value.DoubleValue
0.275

@<SCITEGIC>MOL_PROPERTY
U+W
SciTegic.value.DoubleValue
-15.590

@<SCITEGIC>MOL_PROPERTY
Grad RMS
SciTegic.value.DoubleValue
0.000000

@<SCITEGIC>MOL_PROPERTY
U
SciTegic.value.DoubleValue
45.174

@<SCITEGIC>MOL_PROPERTY
W
SciTegic.value.DoubleValue
-60.765

@<SCITEGIC>MOL_PROPERTY
W(PB)
SciTegic.value.DoubleValue
-62.518

@<SCITEGIC>MOL_PROPERTY
W(SA)
SciTegic.value.DoubleValue
1.754

@<SCITEGIC>MOL_PROPERTY
Valence
SciTegic.value.DoubleValue
1.161

@<SCITEGIC>MOL_PROPERTY
Coulomb
SciTegic.value.DoubleValue
43.789

@<SCITEGIC>MOL_PROPERTY
VdW
SciTegic.value.DoubleValue
0.224

@<SCITEGIC>MOL_PROPERTY
VdW6
SciTegic.value.DoubleValue
-2.897

@<SCITEGIC>MOL_PROPERTY
VdW12
SciTegic.value.DoubleValue
3.121

@<SCITEGIC>MOL_PROPERTY
Bond
SciTegic.value.DoubleValue
0.100

@<SCITEGIC>MOL_PROPERTY
Angle
SciTegic.value.DoubleValue
0.500

@<SCITEGIC>MOL_PROPERTY
Pdih
SciTegic.value.DoubleValue
0.561

@<SCITEGIC>MOL_PROPERTY
Idih
SciTegic.value.DoubleValue
0.000

@<SCITEGIC>MOL_PROPERTY
Tether
SciTegic.value.DoubleValue
0.000

@<TRIPOS>MOLECULE
guest-1_confgen4.mol2 : confsearch ligand conformer 297
          17          16           1
SMALL
USER_CHARGES
 
@<TRIPOS>ATOM
       1    N1      21.741832   18.616592   21.857098 N.4        1 MOL1        -0.5891
       2    H1      21.576032   19.623748   21.786444 H          1 MOL1         0.3726
       3    H2      22.098347   18.305449   20.948491 H          1 MOL1         0.3726
       4    H3      22.498447   18.481422   22.535394 H          1 MOL1         0.3726
       5    C1      20.485581   17.866613   22.256343 C.3        1 MOL1         0.0314
       6    H4      20.191123   18.189425   23.258535 H          1 MOL1         0.0999
       7    H5      20.748397   16.806450   22.306532 H          1 MOL1         0.0999
       8    C2      19.302851   18.045762   21.281321 C.3        1 MOL1        -0.1308
       9    H6      19.655079   17.963820   20.244523 H          1 MOL1         0.1025
      10    H7      18.613717   17.204307   21.432635 H          1 MOL1         0.1025
      11    C3      18.502091   19.358537   21.476540 C.3        1 MOL1        -0.1243
      12    H8      18.101731   19.398619   22.499343 H          1 MOL1         0.1025
      13    H9      17.629030   19.333754   20.809353 H          1 MOL1         0.1025
      14    C4      19.306068   20.646504   21.187329 C.3        1 MOL1        -0.2258
      15    H10     20.065354   20.828173   21.956846 H          1 MOL1         0.1036
      16    H11     18.638805   21.518213   21.181018 H          1 MOL1         0.1036
      17    H12     19.798717   20.597330   20.207517 H          1 MOL1         0.1036
@<TRIPOS>BOND
    1     1     2    1
    2     1     3    1
    3     1     4    1
    4     1     5    1
    5     5     6    1
    6     5     7    1
    7     5     8    1
    8     8     9    1
    9     8    10    1
   10     8    11    1
   11    11    12    1
   12    11    13    1
   13    11    14    1
   14    14    15    1
   15    14    16    1
   16    14    17    1
@<TRIPOS>SUBSTRUCTURE
       1 MOL1            1 RESIDUE      1      MOL     
@<SCITEGIC>MOL_PROPERTY
VConf Rank
SciTegic.value.IntegerValue
297

@<SCITEGIC>MOL_PROPERTY
Conf_Id
SciTegic.value.IntegerValue
19

@<SCITEGIC>MOL_PROPERTY
Delta U+W
SciTegic.value.DoubleValue
2.662

@<SCITEGIC>MOL_PROPERTY
U+W
SciTegic.value.DoubleValue
-13.203

@<SCITEGIC>MOL_PROPERTY
Grad RMS
SciTegic.value.DoubleValue
0.000000

@<SCITEGIC>MOL_PROPERTY
U
SciTegic.value.DoubleValue
47.423

@<SCITEGIC>MOL_PROPERTY
W
SciTegic.value.DoubleValue
-60.626

@<SCITEGIC>MOL_PROPERTY
W(PB)
SciTegic.value.DoubleValue
-62.328

@<SCITEGIC>MOL_PROPERTY
W(SA)
SciTegic.value.DoubleValue
1.702

@<SCITEGIC>MOL_PROPERTY
Valence
SciTegic.value.DoubleValue
2.414

@<SCITEGIC>MOL_PROPERTY
Coulomb
SciTegic.value.DoubleValue
44.831

@<SCITEGIC>MOL_PROPERTY
VdW
SciTegic.value.DoubleValue
0.178

@<SCITEGIC>MOL_PROPERTY
VdW6
SciTegic.value.DoubleValue
-3.743

@<SCITEGIC>MOL_PROPERTY
VdW12
SciTegic.value.DoubleValue
3.921

@<SCITEGIC>MOL_PROPERTY
Bond
SciTegic.value.DoubleValue
0.138

@<SCITEGIC>MOL_PROPERTY
Angle
SciTegic.value.DoubleValue
0.941

@<SCITEGIC>MOL_PROPERTY
Pdih
SciTegic.value.DoubleValue
1.335

@<SCITEGIC>MOL_PROPERTY
Idih
SciTegic.value.DoubleValue
0.000

@<SCITEGIC>MOL_PROPERTY
Tether
SciTegic.value.DoubleValue
0.000

@<TRIPOS>MOLECULE
guest-1_confgen4.mol2 : confsearch ligand conformer 298
          17          16           1
SMALL
USER_CHARGES
 
@<TRIPOS>ATOM
       1    N1      20.794023   17.695884   20.731194 N.4        1 MOL1        -0.5891
       2    H1      20.722926   16.803106   20.232479 H          1 MOL1         0.3726
       3    H2      21.786343   17.841216   20.940142 H          1 MOL1         0.3726
       4    H3      20.513591   18.430552   20.076622 H          1 MOL1         0.3726
       5    C1      19.945660   17.709027   21.988233 C.3        1 MOL1         0.0314
       6    H4      20.310157   16.901098   22.628491 H          1 MOL1         0.0999
       7    H5      18.912207   17.481892   21.713120 H          1 MOL1         0.0999
       8    C2      19.997273   19.035890   22.774606 C.3        1 MOL1        -0.1308
       9    H6      19.688530   18.825422   23.807189 H          1 MOL1         0.1025
      10    H7      21.032951   19.395289   22.837300 H          1 MOL1         0.1025
      11    C3      19.073030   20.149040   22.218390 C.3        1 MOL1        -0.1243
      12    H8      19.107681   21.004195   22.907955 H          1 MOL1         0.1025
      13    H9      18.031026   19.799404   22.220188 H          1 MOL1         0.1025
      14    C4      19.448090   20.642915   20.802658 C.3        1 MOL1        -0.2258
      15    H10     20.510924   20.911109   20.742586 H          1 MOL1         0.1036
      16    H11     18.864319   21.535964   20.544144 H          1 MOL1         0.1036
      17    H12     19.230479   19.884843   20.041309 H          1 MOL1         0.1036
@<TRIPOS>BOND
    1     1     2    1
    2     1     3    1
    3     1     4    1
    4     1     5    1
    5     5     6    1
    6     5     7    1
    7     5     8    1
    8     8     9    1
    9     8    10    1
   10     8    11    1
   11    11    12    1
   12    11    13    1
   13    11    14    1
   14    14    15    1
   15    14    16    1
   16    14    17    1
@<TRIPOS>SUBSTRUCTURE
       1 MOL1            1 RESIDUE      1      MOL     
@<SCITEGIC>MOL_PROPERTY
VConf Rank
SciTegic.value.IntegerValue
298

@<SCITEGIC>MOL_PROPERTY
Conf_Id
SciTegic.value.IntegerValue
44

@<SCITEGIC>MOL_PROPERTY
Delta U+W
SciTegic.value.DoubleValue
2.712

@<SCITEGIC>MOL_PROPERTY
U+W
SciTegic.value.DoubleValue
-13.153

@<SCITEGIC>MOL_PROPERTY
Grad RMS
SciTegic.value.DoubleValue
0.000000

@<SCITEGIC>MOL_PROPERTY
U
SciTegic.value.DoubleValue
47.423

@<SCITEGIC>MOL_PROPERTY
W
SciTegic.value.DoubleValue
-60.576

@<SCITEGIC>MOL_PROPERTY
W(PB)
SciTegic.value.DoubleValue
-62.262

@<SCITEGIC>MOL_PROPERTY
W(SA)
SciTegic.value.DoubleValue
1.687

@<SCITEGIC>MOL_PROPERTY
Valence
SciTegic.value.DoubleValue
2.414

@<SCITEGIC>MOL_PROPERTY
Coulomb
SciTegic.value.DoubleValue
44.831

@<SCITEGIC>MOL_PROPERTY
VdW
SciTegic.value.DoubleValue
0.178

@<SCITEGIC>MOL_PROPERTY
VdW6
SciTegic.value.DoubleValue
-3.743

@<SCITEGIC>MOL_PROPERTY
VdW12
SciTegic.value.DoubleValue
3.922

@<SCITEGIC>MOL_PROPERTY
Bond
SciTegic.value.DoubleValue
0.138

@<SCITEGIC>MOL_PROPERTY
Angle
SciTegic.value.DoubleValue
0.941

@<SCITEGIC>MOL_PROPERTY
Pdih
SciTegic.value.DoubleValue
1.335

@<SCITEGIC>MOL_PROPERTY
Idih
SciTegic.value.DoubleValue
0.000

@<SCITEGIC>MOL_PROPERTY
Tether
SciTegic.value.DoubleValue
0.000

@<TRIPOS>MOLECULE
guest-1_confgen4.mol2 : confsearch ligand conformer 299
          17          16           1
SMALL
USER_CHARGES
 
@<TRIPOS>ATOM
       1    N1      18.503440   17.886378   20.815086 N.4        1 MOL1        -0.5891
       2    H1      18.162997   18.851191   20.774091 H          1 MOL1         0.3726
       3    H2      17.964489   17.405672   21.541607 H          1 MOL1         0.3726
       4    H3      18.259801   17.444943   19.922649 H          1 MOL1         0.3726
       5    C1      19.994646   17.827774   21.084765 C.3        1 MOL1         0.0314
       6    H4      20.508551   18.330429   20.261331 H          1 MOL1         0.0999
       7    H5      20.293238   16.775953   21.077500 H          1 MOL1         0.0999
       8    C2      20.410640   18.467508   22.425515 C.3        1 MOL1        -0.1308
       9    H6      19.921253   17.929991   23.248513 H          1 MOL1         0.1025
      10    H7      21.490102   18.321592   22.564349 H          1 MOL1         0.1025
      11    C3      20.083154   19.977840   22.531373 C.3        1 MOL1        -0.1243
      12    H8      20.400187   20.340173   23.519355 H          1 MOL1         0.1025
      13    H9      18.996579   20.132675   22.486248 H          1 MOL1         0.1025
      14    C4      20.775619   20.825513   21.439705 C.3        1 MOL1        -0.2258
      15    H10     21.864484   20.688424   21.465164 H          1 MOL1         0.1036
      16    H11     20.569091   21.892782   21.592193 H          1 MOL1         0.1036
      17    H12     20.420373   20.559925   20.436106 H          1 MOL1         0.1036
@<TRIPOS>BOND
    1     1     2    1
    2     1     3    1
    3     1     4    1
    4     1     5    1
    5     5     6    1
    6     5     7    1
    7     5     8    1
    8     8     9    1
    9     8    10    1
   10     8    11    1
   11    11    12    1
   12    11    13    1
   13    11    14    1
   14    14    15    1
   15    14    16    1
   16    14    17    1
@<TRIPOS>SUBSTRUCTURE
       1 MOL1            1 RESIDUE      1      MOL     
@<SCITEGIC>MOL_PROPERTY
VConf Rank
SciTegic.value.IntegerValue
299

@<SCITEGIC>MOL_PROPERTY
Conf_Id
SciTegic.value.IntegerValue
1

@<SCITEGIC>MOL_PROPERTY
Delta U+W
SciTegic.value.DoubleValue
0.685

@<SCITEGIC>MOL_PROPERTY
U+W
SciTegic.value.DoubleValue
-15.179

@<SCITEGIC>MOL_PROPERTY
Grad RMS
SciTegic.value.DoubleValue
0.000000

@<SCITEGIC>MOL_PROPERTY
U
SciTegic.value.DoubleValue
45.697

@<SCITEGIC>MOL_PROPERTY
W
SciTegic.value.DoubleValue
-60.876

@<SCITEGIC>MOL_PROPERTY
W(PB)
SciTegic.value.DoubleValue
-62.586

@<SCITEGIC>MOL_PROPERTY
W(SA)
SciTegic.value.DoubleValue
1.710

@<SCITEGIC>MOL_PROPERTY
Valence
SciTegic.value.DoubleValue
1.263

@<SCITEGIC>MOL_PROPERTY
Coulomb
SciTegic.value.DoubleValue
44.179

@<SCITEGIC>MOL_PROPERTY
VdW
SciTegic.value.DoubleValue
0.255

@<SCITEGIC>MOL_PROPERTY
VdW6
SciTegic.value.DoubleValue
-3.552

@<SCITEGIC>MOL_PROPERTY
VdW12
SciTegic.value.DoubleValue
3.807

@<SCITEGIC>MOL_PROPERTY
Bond
SciTegic.value.DoubleValue
0.125

@<SCITEGIC>MOL_PROPERTY
Angle
SciTegic.value.DoubleValue
0.616

@<SCITEGIC>MOL_PROPERTY
Pdih
SciTegic.value.DoubleValue
0.521

@<SCITEGIC>MOL_PROPERTY
Idih
SciTegic.value.DoubleValue
0.000

@<SCITEGIC>MOL_PROPERTY
Tether
SciTegic.value.DoubleValue
0.000

@<TRIPOS>MOLECULE
guest-1_confgen4.mol2 : confsearch ligand conformer 300
          17          16           1
SMALL
USER_CHARGES
 
@<TRIPOS>ATOM
       1    N1      18.747750   20.138074   20.446070 N.4        1 MOL1        -0.5891
       2    H1      17.899026   19.630956   20.177972 H          1 MOL1         0.3726
       3    H2      19.507694   19.790525   19.854342 H          1 MOL1         0.3726
       4    H3      18.598927   21.120793   20.195506 H          1 MOL1         0.3726
       5    C1      19.063344   19.973454   21.920234 C.3        1 MOL1         0.0314
       6    H4      18.230805   20.397336   22.488337 H          1 MOL1         0.0999
       7    H5      19.958047   20.560380   22.143458 H          1 MOL1         0.0999
       8    C2      19.281643   18.508146   22.350511 C.3        1 MOL1        -0.1308
       9    H6      19.438951   18.480820   23.436932 H          1 MOL1         0.1025
      10    H7      18.363904   17.936085   22.160118 H          1 MOL1         0.1025
      11    C3      20.474583   17.815603   21.645644 C.3        1 MOL1        -0.1243
      12    H8      20.289668   17.752714   20.564669 H          1 MOL1         0.1025
      13    H9      20.542545   16.778289   22.002385 H          1 MOL1         0.1025
      14    C4      21.824158   18.524418   21.902602 C.3        1 MOL1        -0.2258
      15    H10     22.647332   17.964453   21.440225 H          1 MOL1         0.1036
      16    H11     22.032428   18.598670   22.977859 H          1 MOL1         0.1036
      17    H12     21.835183   19.537323   21.480878 H          1 MOL1         0.1036
@<TRIPOS>BOND
    1     1     2    1
    2     1     3    1
    3     1     4    1
    4     1     5    1
    5     5     6    1
    6     5     7    1
    7     5     8    1
    8     8     9    1
    9     8    10    1
   10     8    11    1
   11    11    12    1
   12    11    13    1
   13    11    14    1
   14    14    15    1
   15    14    16    1
   16    14    17    1
@<TRIPOS>SUBSTRUCTURE
       1 MOL1            1 RESIDUE      1      MOL     
@<SCITEGIC>MOL_PROPERTY
VConf Rank
SciTegic.value.IntegerValue
300

@<SCITEGIC>MOL_PROPERTY
Conf_Id
SciTegic.value.IntegerValue
43

@<SCITEGIC>MOL_PROPERTY
Delta U+W
SciTegic.value.DoubleValue
0.642

@<SCITEGIC>MOL_PROPERTY
U+W
SciTegic.value.DoubleValue
-15.222

@<SCITEGIC>MOL_PROPERTY
Grad RMS
SciTegic.value.DoubleValue
0.000000

@<SCITEGIC>MOL_PROPERTY
U
SciTegic.value.DoubleValue
45.697

@<SCITEGIC>MOL_PROPERTY
W
SciTegic.value.DoubleValue
-60.919

@<SCITEGIC>MOL_PROPERTY
W(PB)
SciTegic.value.DoubleValue
-62.631

@<SCITEGIC>MOL_PROPERTY
W(SA)
SciTegic.value.DoubleValue
1.712

@<SCITEGIC>MOL_PROPERTY
Valence
SciTegic.value.DoubleValue
1.262

@<SCITEGIC>MOL_PROPERTY
Coulomb
SciTegic.value.DoubleValue
44.179

@<SCITEGIC>MOL_PROPERTY
VdW
SciTegic.value.DoubleValue
0.255

@<SCITEGIC>MOL_PROPERTY
VdW6
SciTegic.value.DoubleValue
-3.552

@<SCITEGIC>MOL_PROPERTY
VdW12
SciTegic.value.DoubleValue
3.807

@<SCITEGIC>MOL_PROPERTY
Bond
SciTegic.value.DoubleValue
0.125

@<SCITEGIC>MOL_PROPERTY
Angle
SciTegic.value.DoubleValue
0.616

@<SCITEGIC>MOL_PROPERTY
Pdih
SciTegic.value.DoubleValue
0.521

@<SCITEGIC>MOL_PROPERTY
Idih
SciTegic.value.DoubleValue
0.000

@<SCITEGIC>MOL_PROPERTY
Tether
SciTegic.value.DoubleValue
0.000

@<TRIPOS>MOLECULE
guest-1_confgen4.mol2 : confsearch ligand conformer 301
          17          16           1
SMALL
USER_CHARGES
 
@<TRIPOS>ATOM
       1    N1      20.219319   17.111202   19.954148 N.4        1 MOL1        -0.5891
       2    H1      20.505982   17.663415   19.140157 H          1 MOL1         0.3726
       3    H2      19.223461   16.899972   19.838630 H          1 MOL1         0.3726
       4    H3      20.719991   16.218428   19.897649 H          1 MOL1         0.3726
       5    C1      20.499391   17.832906   21.257244 C.3        1 MOL1         0.0314
       6    H4      21.578131   17.997108   21.327108 H          1 MOL1         0.0999
       7    H5      20.199045   17.176138   22.078202 H          1 MOL1         0.0999
       8    C2      19.762317   19.179371   21.375636 C.3        1 MOL1        -0.1308
       9    H6      20.054663   19.830494   20.541031 H          1 MOL1         0.1025
      10    H7      18.680327   19.012335   21.289691 H          1 MOL1         0.1025
      11    C3      20.074779   19.880783   22.715751 C.3        1 MOL1        -0.1243
      12    H8      21.158066   20.045269   22.803847 H          1 MOL1         0.1025
      13    H9      19.785345   19.228152   23.551590 H          1 MOL1         0.1025
      14    C4      19.338862   21.232279   22.841612 C.3        1 MOL1        -0.2258
      15    H10     19.573879   21.714140   23.799539 H          1 MOL1         0.1036
      16    H11     18.250666   21.096055   22.791818 H          1 MOL1         0.1036
      17    H12     19.634184   21.919597   22.038129 H          1 MOL1         0.1036
@<TRIPOS>BOND
    1     1     2    1
    2     1     3    1
    3     1     4    1
    4     1     5    1
    5     5     6    1
    6     5     7    1
    7     5     8    1
    8     8     9    1
    9     8    10    1
   10     8    11    1
   11    11    12    1
   12    11    13    1
   13    11    14    1
   14    14    15    1
   15    14    16    1
   16    14    17    1
@<TRIPOS>SUBSTRUCTURE
       1 MOL1            1 RESIDUE      1      MOL     
@<SCITEGIC>MOL_PROPERTY
VConf Rank
SciTegic.value.IntegerValue
301

@<SCITEGIC>MOL_PROPERTY
Conf_Id
SciTegic.value.IntegerValue
7

@<SCITEGIC>MOL_PROPERTY
Delta U+W
SciTegic.value.DoubleValue
0.000

@<SCITEGIC>MOL_PROPERTY
U+W
SciTegic.value.DoubleValue
-15.865

@<SCITEGIC>MOL_PROPERTY
Grad RMS
SciTegic.value.DoubleValue
0.000000

@<SCITEGIC>MOL_PROPERTY
U
SciTegic.value.DoubleValue
44.664

@<SCITEGIC>MOL_PROPERTY
W
SciTegic.value.DoubleValue
-60.529

@<SCITEGIC>MOL_PROPERTY
W(PB)
SciTegic.value.DoubleValue
-62.309

@<SCITEGIC>MOL_PROPERTY
W(SA)
SciTegic.value.DoubleValue
1.780

@<SCITEGIC>MOL_PROPERTY
Valence
SciTegic.value.DoubleValue
0.872

@<SCITEGIC>MOL_PROPERTY
Coulomb
SciTegic.value.DoubleValue
43.648

@<SCITEGIC>MOL_PROPERTY
VdW
SciTegic.value.DoubleValue
0.144

@<SCITEGIC>MOL_PROPERTY
VdW6
SciTegic.value.DoubleValue
-2.370

@<SCITEGIC>MOL_PROPERTY
VdW12
SciTegic.value.DoubleValue
2.515

@<SCITEGIC>MOL_PROPERTY
Bond
SciTegic.value.DoubleValue
0.080

@<SCITEGIC>MOL_PROPERTY
Angle
SciTegic.value.DoubleValue
0.376

@<SCITEGIC>MOL_PROPERTY
Pdih
SciTegic.value.DoubleValue
0.416

@<SCITEGIC>MOL_PROPERTY
Idih
SciTegic.value.DoubleValue
0.000

@<SCITEGIC>MOL_PROPERTY
Tether
SciTegic.value.DoubleValue
0.000

@<TRIPOS>MOLECULE
guest-1_confgen4.mol2 : confsearch ligand conformer 302
          17          16           1
SMALL
USER_CHARGES
 
@<TRIPOS>ATOM
       1    N1      21.523831   19.205111   19.811731 N.4        1 MOL1        -0.5891
       2    H1      22.360835   19.695528   20.141220 H          1 MOL1         0.3726
       3    H2      21.010140   19.857144   19.211214 H          1 MOL1         0.3726
       4    H3      21.846245   18.439838   19.210691 H          1 MOL1         0.3726
       5    C1      20.672781   18.700046   20.959764 C.3        1 MOL1         0.0314
       6    H4      21.271277   17.990461   21.537431 H          1 MOL1         0.0999
       7    H5      19.820205   18.163704   20.535161 H          1 MOL1         0.0999
       8    C2      20.170582   19.825997   21.883880 C.3        1 MOL1        -0.1308
       9    H6      21.032892   20.383414   22.273220 H          1 MOL1         0.1025
      10    H7      19.570866   20.539574   21.303331 H          1 MOL1         0.1025
      11    C3      19.336559   19.294337   23.072891 C.3        1 MOL1        -0.1243
      12    H8      19.079304   20.134925   23.732597 H          1 MOL1         0.1025
      13    H9      19.946334   18.605315   23.674228 H          1 MOL1         0.1025
      14    C4      18.036346   18.585113   22.629714 C.3        1 MOL1        -0.2258
      15    H10     17.410748   19.251047   22.021205 H          1 MOL1         0.1036
      16    H11     17.447474   18.279258   23.504179 H          1 MOL1         0.1036
      17    H12     18.248960   17.682961   22.042341 H          1 MOL1         0.1036
@<TRIPOS>BOND
    1     1     2    1
    2     1     3    1
    3     1     4    1
    4     1     5    1
    5     5     6    1
    6     5     7    1
    7     5     8    1
    8     8     9    1
    9     8    10    1
   10     8    11    1
   11    11    12    1
   12    11    13    1
   13    11    14    1
   14    14    15    1
   15    14    16    1
   16    14    17    1
@<TRIPOS>SUBSTRUCTURE
       1 MOL1            1 RESIDUE      1      MOL     
@<SCITEGIC>MOL_PROPERTY
VConf Rank
SciTegic.value.IntegerValue
302

@<SCITEGIC>MOL_PROPERTY
Conf_Id
SciTegic.value.IntegerValue
36

@<SCITEGIC>MOL_PROPERTY
Delta U+W
SciTegic.value.DoubleValue
0.275

@<SCITEGIC>MOL_PROPERTY
U+W
SciTegic.value.DoubleValue
-15.590

@<SCITEGIC>MOL_PROPERTY
Grad RMS
SciTegic.value.DoubleValue
0.000000

@<SCITEGIC>MOL_PROPERTY
U
SciTegic.value.DoubleValue
45.174

@<SCITEGIC>MOL_PROPERTY
W
SciTegic.value.DoubleValue
-60.765

@<SCITEGIC>MOL_PROPERTY
W(PB)
SciTegic.value.DoubleValue
-62.518

@<SCITEGIC>MOL_PROPERTY
W(SA)
SciTegic.value.DoubleValue
1.754

@<SCITEGIC>MOL_PROPERTY
Valence
SciTegic.value.DoubleValue
1.161

@<SCITEGIC>MOL_PROPERTY
Coulomb
SciTegic.value.DoubleValue
43.789

@<SCITEGIC>MOL_PROPERTY
VdW
SciTegic.value.DoubleValue
0.224

@<SCITEGIC>MOL_PROPERTY
VdW6
SciTegic.value.DoubleValue
-2.897

@<SCITEGIC>MOL_PROPERTY
VdW12
SciTegic.value.DoubleValue
3.121

@<SCITEGIC>MOL_PROPERTY
Bond
SciTegic.value.DoubleValue
0.100

@<SCITEGIC>MOL_PROPERTY
Angle
SciTegic.value.DoubleValue
0.500

@<SCITEGIC>MOL_PROPERTY
Pdih
SciTegic.value.DoubleValue
0.561

@<SCITEGIC>MOL_PROPERTY
Idih
SciTegic.value.DoubleValue
0.000

@<SCITEGIC>MOL_PROPERTY
Tether
SciTegic.value.DoubleValue
0.000

@<TRIPOS>MOLECULE
guest-1_confgen4.mol2 : confsearch ligand conformer 303
          17          16           1
SMALL
USER_CHARGES
 
@<TRIPOS>ATOM
       1    N1      21.113243   20.410713   21.380423 N.4        1 MOL1        -0.5891
       2    H1      21.389712   19.608616   20.808540 H          1 MOL1         0.3726
       3    H2      21.715567   20.411844   22.209087 H          1 MOL1         0.3726
       4    H3      21.340705   21.255687   20.846474 H          1 MOL1         0.3726
       5    C1      19.643854   20.356585   21.751902 C.3        1 MOL1         0.0314
       6    H4      19.050506   20.426939   20.836320 H          1 MOL1         0.0999
       7    H5      19.434646   21.241665   22.358865 H          1 MOL1         0.0999
       8    C2      19.235560   19.096233   22.543370 C.3        1 MOL1        -0.1308
       9    H6      19.981010   18.883146   23.320948 H          1 MOL1         0.1025
      10    H7      18.301916   19.322661   23.075241 H          1 MOL1         0.1025
      11    C3      18.993377   17.838992   21.669644 C.3        1 MOL1        -0.1243
      12    H8      18.200750   18.045360   20.936720 H          1 MOL1         0.1025
      13    H9      18.608456   17.037522   22.315763 H          1 MOL1         0.1025
      14    C4      20.250405   17.318764   20.936074 C.3        1 MOL1        -0.2258
      15    H10     20.554229   17.995534   20.129011 H          1 MOL1         0.1036
      16    H11     20.046733   16.342122   20.477987 H          1 MOL1         0.1036
      17    H12     21.092529   17.192333   21.628891 H          1 MOL1         0.1036
@<TRIPOS>BOND
    1     1     2    1
    2     1     3    1
    3     1     4    1
    4     1     5    1
    5     5     6    1
    6     5     7    1
    7     5     8    1
    8     8     9    1
    9     8    10    1
   10     8    11    1
   11    11    12    1
   12    11    13    1
   13    11    14    1
   14    14    15    1
   15    14    16    1
   16    14    17    1
@<TRIPOS>SUBSTRUCTURE
       1 MOL1            1 RESIDUE      1      MOL     
@<SCITEGIC>MOL_PROPERTY
VConf Rank
SciTegic.value.IntegerValue
303

@<SCITEGIC>MOL_PROPERTY
Conf_Id
SciTegic.value.IntegerValue
19

@<SCITEGIC>MOL_PROPERTY
Delta U+W
SciTegic.value.DoubleValue
2.662

@<SCITEGIC>MOL_PROPERTY
U+W
SciTegic.value.DoubleValue
-13.203

@<SCITEGIC>MOL_PROPERTY
Grad RMS
SciTegic.value.DoubleValue
0.000000

@<SCITEGIC>MOL_PROPERTY
U
SciTegic.value.DoubleValue
47.423

@<SCITEGIC>MOL_PROPERTY
W
SciTegic.value.DoubleValue
-60.626

@<SCITEGIC>MOL_PROPERTY
W(PB)
SciTegic.value.DoubleValue
-62.328

@<SCITEGIC>MOL_PROPERTY
W(SA)
SciTegic.value.DoubleValue
1.702

@<SCITEGIC>MOL_PROPERTY
Valence
SciTegic.value.DoubleValue
2.414

@<SCITEGIC>MOL_PROPERTY
Coulomb
SciTegic.value.DoubleValue
44.831

@<SCITEGIC>MOL_PROPERTY
VdW
SciTegic.value.DoubleValue
0.178

@<SCITEGIC>MOL_PROPERTY
VdW6
SciTegic.value.DoubleValue
-3.743

@<SCITEGIC>MOL_PROPERTY
VdW12
SciTegic.value.DoubleValue
3.921

@<SCITEGIC>MOL_PROPERTY
Bond
SciTegic.value.DoubleValue
0.138

@<SCITEGIC>MOL_PROPERTY
Angle
SciTegic.value.DoubleValue
0.941

@<SCITEGIC>MOL_PROPERTY
Pdih
SciTegic.value.DoubleValue
1.335

@<SCITEGIC>MOL_PROPERTY
Idih
SciTegic.value.DoubleValue
0.000

@<SCITEGIC>MOL_PROPERTY
Tether
SciTegic.value.DoubleValue
0.000

@<TRIPOS>MOLECULE
guest-1_confgen4.mol2 : confsearch ligand conformer 304
          17          16           1
SMALL
USER_CHARGES
 
@<TRIPOS>ATOM
       1    N1      19.249500   20.441970   22.673410 N.4        1 MOL1        -0.5891
       2    H1      18.978336   20.734129   23.617835 H          1 MOL1         0.3726
       3    H2      18.934197   21.176874   22.033112 H          1 MOL1         0.3726
       4    H3      20.272133   20.433741   22.641849 H          1 MOL1         0.3726
       5    C1      18.664921   19.090216   22.311378 C.3        1 MOL1         0.0314
       6    H4      17.577232   19.186809   22.367410 H          1 MOL1         0.0999
       7    H5      18.978622   18.362321   23.064414 H          1 MOL1         0.0999
       8    C2      19.053200   18.587171   20.905037 C.3        1 MOL1        -0.1308
       9    H6      18.310292   17.838087   20.600395 H          1 MOL1         0.1025
      10    H7      18.971391   19.405585   20.177551 H          1 MOL1         0.1025
      11    C3      20.454510   17.929832   20.821748 C.3        1 MOL1        -0.1243
      12    H8      20.583473   17.516839   19.811404 H          1 MOL1         0.1025
      13    H9      20.502221   17.073032   21.508509 H          1 MOL1         0.1025
      14    C4      21.629414   18.890473   21.114405 C.3        1 MOL1        -0.2258
      15    H10     21.557763   19.803761   20.509489 H          1 MOL1         0.1036
      16    H11     22.585254   18.406634   20.874769 H          1 MOL1         0.1036
      17    H12     21.666754   19.169371   22.173887 H          1 MOL1         0.1036
@<TRIPOS>BOND
    1     1     2    1
    2     1     3    1
    3     1     4    1
    4     1     5    1
    5     5     6    1
    6     5     7    1
    7     5     8    1
    8     8     9    1
    9     8    10    1
   10     8    11    1
   11    11    12    1
   12    11    13    1
   13    11    14    1
   14    14    15    1
   15    14    16    1
   16    14    17    1
@<TRIPOS>SUBSTRUCTURE
       1 MOL1            1 RESIDUE      1      MOL     
@<SCITEGIC>MOL_PROPERTY
VConf Rank
SciTegic.value.IntegerValue
304

@<SCITEGIC>MOL_PROPERTY
Conf_Id
SciTegic.value.IntegerValue
44

@<SCITEGIC>MOL_PROPERTY
Delta U+W
SciTegic.value.DoubleValue
2.712

@<SCITEGIC>MOL_PROPERTY
U+W
SciTegic.value.DoubleValue
-13.153

@<SCITEGIC>MOL_PROPERTY
Grad RMS
SciTegic.value.DoubleValue
0.000000

@<SCITEGIC>MOL_PROPERTY
U
SciTegic.value.DoubleValue
47.423

@<SCITEGIC>MOL_PROPERTY
W
SciTegic.value.DoubleValue
-60.576

@<SCITEGIC>MOL_PROPERTY
W(PB)
SciTegic.value.DoubleValue
-62.262

@<SCITEGIC>MOL_PROPERTY
W(SA)
SciTegic.value.DoubleValue
1.687

@<SCITEGIC>MOL_PROPERTY
Valence
SciTegic.value.DoubleValue
2.414

@<SCITEGIC>MOL_PROPERTY
Coulomb
SciTegic.value.DoubleValue
44.831

@<SCITEGIC>MOL_PROPERTY
VdW
SciTegic.value.DoubleValue
0.178

@<SCITEGIC>MOL_PROPERTY
VdW6
SciTegic.value.DoubleValue
-3.743

@<SCITEGIC>MOL_PROPERTY
VdW12
SciTegic.value.DoubleValue
3.922

@<SCITEGIC>MOL_PROPERTY
Bond
SciTegic.value.DoubleValue
0.138

@<SCITEGIC>MOL_PROPERTY
Angle
SciTegic.value.DoubleValue
0.941

@<SCITEGIC>MOL_PROPERTY
Pdih
SciTegic.value.DoubleValue
1.335

@<SCITEGIC>MOL_PROPERTY
Idih
SciTegic.value.DoubleValue
0.000

@<SCITEGIC>MOL_PROPERTY
Tether
SciTegic.value.DoubleValue
0.000

@<TRIPOS>MOLECULE
guest-1_confgen4.mol2 : confsearch ligand conformer 305
          17          16           1
SMALL
USER_CHARGES
 
@<TRIPOS>ATOM
       1    N1      21.252588   18.395780   20.275045 N.4        1 MOL1        -0.5891
       2    H1      20.476396   17.727996   20.268927 H          1 MOL1         0.3726
       3    H2      22.044866   17.935052   20.732650 H          1 MOL1         0.3726
       4    H3      21.521935   18.550446   19.298214 H          1 MOL1         0.3726
       5    C1      20.874131   19.690788   20.967565 C.3        1 MOL1         0.0314
       6    H4      20.046908   20.142581   20.414041 H          1 MOL1         0.0999
       7    H5      21.732009   20.365679   20.903484 H          1 MOL1         0.0999
       8    C2      20.474225   19.512162   22.446783 C.3        1 MOL1        -0.1308
       9    H6      21.324964   19.095855   23.002373 H          1 MOL1         0.1025
      10    H7      20.281093   20.502335   22.880444 H          1 MOL1         0.1025
      11    C3      19.231569   18.612022   22.659174 C.3        1 MOL1        -0.1243
      12    H8      19.032847   18.531907   23.737133 H          1 MOL1         0.1025
      13    H9      19.441438   17.590830   22.313087 H          1 MOL1         0.1025
      14    C4      17.965869   19.150947   21.953935 C.3        1 MOL1        -0.2258
      15    H10     17.734333   20.171785   22.284616 H          1 MOL1         0.1036
      16    H11     17.098118   18.519537   22.184797 H          1 MOL1         0.1036
      17    H12     18.085353   19.163062   20.863281 H          1 MOL1         0.1036
@<TRIPOS>BOND
    1     1     2    1
    2     1     3    1
    3     1     4    1
    4     1     5    1
    5     5     6    1
    6     5     7    1
    7     5     8    1
    8     8     9    1
    9     8    10    1
   10     8    11    1
   11    11    12    1
   12    11    13    1
   13    11    14    1
   14    14    15    1
   15    14    16    1
   16    14    17    1
@<TRIPOS>SUBSTRUCTURE
       1 MOL1            1 RESIDUE      1      MOL     
@<SCITEGIC>MOL_PROPERTY
VConf Rank
SciTegic.value.IntegerValue
305

@<SCITEGIC>MOL_PROPERTY
Conf_Id
SciTegic.value.IntegerValue
1

@<SCITEGIC>MOL_PROPERTY
Delta U+W
SciTegic.value.DoubleValue
0.685

@<SCITEGIC>MOL_PROPERTY
U+W
SciTegic.value.DoubleValue
-15.179

@<SCITEGIC>MOL_PROPERTY
Grad RMS
SciTegic.value.DoubleValue
0.000000

@<SCITEGIC>MOL_PROPERTY
U
SciTegic.value.DoubleValue
45.697

@<SCITEGIC>MOL_PROPERTY
W
SciTegic.value.DoubleValue
-60.876

@<SCITEGIC>MOL_PROPERTY
W(PB)
SciTegic.value.DoubleValue
-62.586

@<SCITEGIC>MOL_PROPERTY
W(SA)
SciTegic.value.DoubleValue
1.710

@<SCITEGIC>MOL_PROPERTY
Valence
SciTegic.value.DoubleValue
1.263

@<SCITEGIC>MOL_PROPERTY
Coulomb
SciTegic.value.DoubleValue
44.179

@<SCITEGIC>MOL_PROPERTY
VdW
SciTegic.value.DoubleValue
0.255

@<SCITEGIC>MOL_PROPERTY
VdW6
SciTegic.value.DoubleValue
-3.552

@<SCITEGIC>MOL_PROPERTY
VdW12
SciTegic.value.DoubleValue
3.807

@<SCITEGIC>MOL_PROPERTY
Bond
SciTegic.value.DoubleValue
0.125

@<SCITEGIC>MOL_PROPERTY
Angle
SciTegic.value.DoubleValue
0.616

@<SCITEGIC>MOL_PROPERTY
Pdih
SciTegic.value.DoubleValue
0.521

@<SCITEGIC>MOL_PROPERTY
Idih
SciTegic.value.DoubleValue
0.000

@<SCITEGIC>MOL_PROPERTY
Tether
SciTegic.value.DoubleValue
0.000

@<TRIPOS>MOLECULE
guest-1_confgen4.mol2 : confsearch ligand conformer 306
          17          16           1
SMALL
USER_CHARGES
 
@<TRIPOS>ATOM
       1    N1      19.597888   17.888891   23.191800 N.4        1 MOL1        -0.5891
       2    H1      18.625633   17.954487   23.507701 H          1 MOL1         0.3726
       3    H2      20.079921   18.730973   23.518892 H          1 MOL1         0.3726
       4    H3      20.017664   17.093661   23.683801 H          1 MOL1         0.3726
       5    C1      19.694451   17.735319   21.686160 C.3        1 MOL1         0.0314
       6    H4      19.194006   16.802069   21.413880 H          1 MOL1         0.0999
       7    H5      20.750869   17.641717   21.421538 H          1 MOL1         0.0999
       8    C2      19.062454   18.902132   20.899365 C.3        1 MOL1        -0.1308
       9    H6      19.121228   18.674989   19.826633 H          1 MOL1         0.1025
      10    H7      17.992963   18.962199   21.140879 H          1 MOL1         0.1025
      11    C3      19.727622   20.275393   21.166318 C.3        1 MOL1        -0.1243
      12    H8      19.596607   20.560116   22.219134 H          1 MOL1         0.1025
      13    H9      19.204725   21.042158   20.577629 H          1 MOL1         0.1025
      14    C4      21.230010   20.301309   20.803059 C.3        1 MOL1        -0.2258
      15    H10     21.643335   21.308161   20.945814 H          1 MOL1         0.1036
      16    H11     21.387082   20.020838   19.753425 H          1 MOL1         0.1036
      17    H12     21.809527   19.613629   21.431712 H          1 MOL1         0.1036
@<TRIPOS>BOND
    1     1     2    1
    2     1     3    1
    3     1     4    1
    4     1     5    1
    5     5     6    1
    6     5     7    1
    7     5     8    1
    8     8     9    1
    9     8    10    1
   10     8    11    1
   11    11    12    1
   12    11    13    1
   13    11    14    1
   14    14    15    1
   15    14    16    1
   16    14    17    1
@<TRIPOS>SUBSTRUCTURE
       1 MOL1            1 RESIDUE      1      MOL     
@<SCITEGIC>MOL_PROPERTY
VConf Rank
SciTegic.value.IntegerValue
306

@<SCITEGIC>MOL_PROPERTY
Conf_Id
SciTegic.value.IntegerValue
43

@<SCITEGIC>MOL_PROPERTY
Delta U+W
SciTegic.value.DoubleValue
0.642

@<SCITEGIC>MOL_PROPERTY
U+W
SciTegic.value.DoubleValue
-15.222

@<SCITEGIC>MOL_PROPERTY
Grad RMS
SciTegic.value.DoubleValue
0.000000

@<SCITEGIC>MOL_PROPERTY
U
SciTegic.value.DoubleValue
45.697

@<SCITEGIC>MOL_PROPERTY
W
SciTegic.value.DoubleValue
-60.919

@<SCITEGIC>MOL_PROPERTY
W(PB)
SciTegic.value.DoubleValue
-62.631

@<SCITEGIC>MOL_PROPERTY
W(SA)
SciTegic.value.DoubleValue
1.712

@<SCITEGIC>MOL_PROPERTY
Valence
SciTegic.value.DoubleValue
1.262

@<SCITEGIC>MOL_PROPERTY
Coulomb
SciTegic.value.DoubleValue
44.179

@<SCITEGIC>MOL_PROPERTY
VdW
SciTegic.value.DoubleValue
0.255

@<SCITEGIC>MOL_PROPERTY
VdW6
SciTegic.value.DoubleValue
-3.552

@<SCITEGIC>MOL_PROPERTY
VdW12
SciTegic.value.DoubleValue
3.807

@<SCITEGIC>MOL_PROPERTY
Bond
SciTegic.value.DoubleValue
0.125

@<SCITEGIC>MOL_PROPERTY
Angle
SciTegic.value.DoubleValue
0.616

@<SCITEGIC>MOL_PROPERTY
Pdih
SciTegic.value.DoubleValue
0.521

@<SCITEGIC>MOL_PROPERTY
Idih
SciTegic.value.DoubleValue
0.000

@<SCITEGIC>MOL_PROPERTY
Tether
SciTegic.value.DoubleValue
0.000

@<TRIPOS>MOLECULE
guest-1_confgen4.mol2 : confsearch ligand conformer 307
          17          16           1
SMALL
USER_CHARGES
 
@<TRIPOS>ATOM
       1    N1      19.191040   16.845700   20.556292 N.4        1 MOL1        -0.5891
       2    H1      19.131777   17.170547   19.586417 H          1 MOL1         0.3726
       3    H2      18.237736   16.844108   20.931668 H          1 MOL1         0.3726
       4    H3      19.497934   15.868142   20.523035 H          1 MOL1         0.3726
       5    C1      20.126691   17.702192   21.385953 C.3        1 MOL1         0.0314
       6    H4      21.126021   17.632332   20.947797 H          1 MOL1         0.0999
       7    H5      20.164675   17.281277   22.394373 H          1 MOL1         0.0999
       8    C2      19.695041   19.178284   21.457313 C.3        1 MOL1        -0.1308
       9    H6      19.643036   19.593189   20.441863 H          1 MOL1         0.1025
      10    H7      18.685070   19.243354   21.883594 H          1 MOL1         0.1025
      11    C3      20.673857   20.014541   22.310608 C.3        1 MOL1        -0.1243
      12    H8      21.685658   19.947110   21.886299 H          1 MOL1         0.1025
      13    H9      20.728811   19.597757   23.326284 H          1 MOL1         0.1025
      14    C4      20.247283   21.496500   22.386686 C.3        1 MOL1        -0.2258
      15    H10     20.954865   22.072951   22.996670 H          1 MOL1         0.1036
      16    H11     19.252284   21.598788   22.839148 H          1 MOL1         0.1036
      17    H12     20.216628   21.950876   21.387782 H          1 MOL1         0.1036
@<TRIPOS>BOND
    1     1     2    1
    2     1     3    1
    3     1     4    1
    4     1     5    1
    5     5     6    1
    6     5     7    1
    7     5     8    1
    8     8     9    1
    9     8    10    1
   10     8    11    1
   11    11    12    1
   12    11    13    1
   13    11    14    1
   14    14    15    1
   15    14    16    1
   16    14    17    1
@<TRIPOS>SUBSTRUCTURE
       1 MOL1            1 RESIDUE      1      MOL     
@<SCITEGIC>MOL_PROPERTY
VConf Rank
SciTegic.value.IntegerValue
307

@<SCITEGIC>MOL_PROPERTY
Conf_Id
SciTegic.value.IntegerValue
7

@<SCITEGIC>MOL_PROPERTY
Delta U+W
SciTegic.value.DoubleValue
0.000

@<SCITEGIC>MOL_PROPERTY
U+W
SciTegic.value.DoubleValue
-15.865

@<SCITEGIC>MOL_PROPERTY
Grad RMS
SciTegic.value.DoubleValue
0.000000

@<SCITEGIC>MOL_PROPERTY
U
SciTegic.value.DoubleValue
44.664

@<SCITEGIC>MOL_PROPERTY
W
SciTegic.value.DoubleValue
-60.529

@<SCITEGIC>MOL_PROPERTY
W(PB)
SciTegic.value.DoubleValue
-62.309

@<SCITEGIC>MOL_PROPERTY
W(SA)
SciTegic.value.DoubleValue
1.780

@<SCITEGIC>MOL_PROPERTY
Valence
SciTegic.value.DoubleValue
0.872

@<SCITEGIC>MOL_PROPERTY
Coulomb
SciTegic.value.DoubleValue
43.648

@<SCITEGIC>MOL_PROPERTY
VdW
SciTegic.value.DoubleValue
0.144

@<SCITEGIC>MOL_PROPERTY
VdW6
SciTegic.value.DoubleValue
-2.370

@<SCITEGIC>MOL_PROPERTY
VdW12
SciTegic.value.DoubleValue
2.515

@<SCITEGIC>MOL_PROPERTY
Bond
SciTegic.value.DoubleValue
0.080

@<SCITEGIC>MOL_PROPERTY
Angle
SciTegic.value.DoubleValue
0.376

@<SCITEGIC>MOL_PROPERTY
Pdih
SciTegic.value.DoubleValue
0.416

@<SCITEGIC>MOL_PROPERTY
Idih
SciTegic.value.DoubleValue
0.000

@<SCITEGIC>MOL_PROPERTY
Tether
SciTegic.value.DoubleValue
0.000

@<TRIPOS>MOLECULE
guest-1_confgen4.mol2 : confsearch ligand conformer 308
          17          16           1
SMALL
USER_CHARGES
 
@<TRIPOS>ATOM
       1    N1      20.362273   17.766520   23.587958 N.4        1 MOL1        -0.5891
       2    H1      19.478802   17.361170   23.911715 H          1 MOL1         0.3726
       3    H2      20.593229   18.533411   24.226852 H          1 MOL1         0.3726
       4    H3      21.082115   17.047837   23.715100 H          1 MOL1         0.3726
       5    C1      20.279226   18.232720   22.148126 C.3        1 MOL1         0.0314
       6    H4      20.060914   17.362530   21.523213 H          1 MOL1         0.0999
       7    H5      21.260485   18.621550   21.863904 H          1 MOL1         0.0999
       8    C2      19.205921   19.314703   21.921656 C.3        1 MOL1        -0.1308
       9    H6      18.231073   18.928247   22.247538 H          1 MOL1         0.1025
      10    H7      19.424273   20.188026   22.550557 H          1 MOL1         0.1025
      11    C3      19.104231   19.753512   20.442091 C.3        1 MOL1        -0.1243
      12    H8      18.271240   20.462716   20.336563 H          1 MOL1         0.1025
      13    H9      18.852808   18.886420   19.815098 H          1 MOL1         0.1025
      14    C4      20.399235   20.415307   19.917735 C.3        1 MOL1        -0.2258
      15    H10     20.676336   21.282290   20.531479 H          1 MOL1         0.1036
      16    H11     20.262205   20.765422   18.886402 H          1 MOL1         0.1036
      17    H12     21.241015   19.711392   19.918813 H          1 MOL1         0.1036
@<TRIPOS>BOND
    1     1     2    1
    2     1     3    1
    3     1     4    1
    4     1     5    1
    5     5     6    1
    6     5     7    1
    7     5     8    1
    8     8     9    1
    9     8    10    1
   10     8    11    1
   11    11    12    1
   12    11    13    1
   13    11    14    1
   14    14    15    1
   15    14    16    1
   16    14    17    1
@<TRIPOS>SUBSTRUCTURE
       1 MOL1            1 RESIDUE      1      MOL     
@<SCITEGIC>MOL_PROPERTY
VConf Rank
SciTegic.value.IntegerValue
308

@<SCITEGIC>MOL_PROPERTY
Conf_Id
SciTegic.value.IntegerValue
36

@<SCITEGIC>MOL_PROPERTY
Delta U+W
SciTegic.value.DoubleValue
0.275

@<SCITEGIC>MOL_PROPERTY
U+W
SciTegic.value.DoubleValue
-15.590

@<SCITEGIC>MOL_PROPERTY
Grad RMS
SciTegic.value.DoubleValue
0.000000

@<SCITEGIC>MOL_PROPERTY
U
SciTegic.value.DoubleValue
45.174

@<SCITEGIC>MOL_PROPERTY
W
SciTegic.value.DoubleValue
-60.765

@<SCITEGIC>MOL_PROPERTY
W(PB)
SciTegic.value.DoubleValue
-62.518

@<SCITEGIC>MOL_PROPERTY
W(SA)
SciTegic.value.DoubleValue
1.754

@<SCITEGIC>MOL_PROPERTY
Valence
SciTegic.value.DoubleValue
1.161

@<SCITEGIC>MOL_PROPERTY
Coulomb
SciTegic.value.DoubleValue
43.789

@<SCITEGIC>MOL_PROPERTY
VdW
SciTegic.value.DoubleValue
0.224

@<SCITEGIC>MOL_PROPERTY
VdW6
SciTegic.value.DoubleValue
-2.897

@<SCITEGIC>MOL_PROPERTY
VdW12
SciTegic.value.DoubleValue
3.121

@<SCITEGIC>MOL_PROPERTY
Bond
SciTegic.value.DoubleValue
0.100

@<SCITEGIC>MOL_PROPERTY
Angle
SciTegic.value.DoubleValue
0.500

@<SCITEGIC>MOL_PROPERTY
Pdih
SciTegic.value.DoubleValue
0.561

@<SCITEGIC>MOL_PROPERTY
Idih
SciTegic.value.DoubleValue
0.000

@<SCITEGIC>MOL_PROPERTY
Tether
SciTegic.value.DoubleValue
0.000

@<TRIPOS>MOLECULE
guest-1_confgen4.mol2 : confsearch ligand conformer 309
          17          16           1
SMALL
USER_CHARGES
 
@<TRIPOS>ATOM
       1    N1      20.960500   18.082071   20.340167 N.4        1 MOL1        -0.5891
       2    H1      20.080701   17.593646   20.525207 H          1 MOL1         0.3726
       3    H2      21.692159   17.594495   20.865927 H          1 MOL1         0.3726
       4    H3      21.173942   17.954523   19.345684 H          1 MOL1         0.3726
       5    C1      20.879004   19.549075   20.716050 C.3        1 MOL1         0.0314
       6    H4      20.132894   20.030861   20.078472 H          1 MOL1         0.0999
       7    H5      21.852942   19.991679   20.490034 H          1 MOL1         0.0999
       8    C2      20.542202   19.806014   22.200017 C.3        1 MOL1        -0.1308
       9    H6      21.127562   19.132639   22.840056 H          1 MOL1         0.1025
      10    H7      20.875577   20.822503   22.447925 H          1 MOL1         0.1025
      11    C3      19.034452   19.701760   22.544294 C.3        1 MOL1        -0.1243
      12    H8      18.466976   20.425229   21.942144 H          1 MOL1         0.1025
      13    H9      18.897017   20.004431   23.591906 H          1 MOL1         0.1025
      14    C4      18.432191   18.290749   22.356647 C.3        1 MOL1        -0.2258
      15    H10     18.353896   18.024467   21.296156 H          1 MOL1         0.1036
      16    H11     17.417758   18.251391   22.774419 H          1 MOL1         0.1036
      17    H12     19.033425   17.529184   22.870155 H          1 MOL1         0.1036
@<TRIPOS>BOND
    1     1     2    1
    2     1     3    1
    3     1     4    1
    4     1     5    1
    5     5     6    1
    6     5     7    1
    7     5     8    1
    8     8     9    1
    9     8    10    1
   10     8    11    1
   11    11    12    1
   12    11    13    1
   13    11    14    1
   14    14    15    1
   15    14    16    1
   16    14    17    1
@<TRIPOS>SUBSTRUCTURE
       1 MOL1            1 RESIDUE      1      MOL     
@<SCITEGIC>MOL_PROPERTY
VConf Rank
SciTegic.value.IntegerValue
309

@<SCITEGIC>MOL_PROPERTY
Conf_Id
SciTegic.value.IntegerValue
19

@<SCITEGIC>MOL_PROPERTY
Delta U+W
SciTegic.value.DoubleValue
2.662

@<SCITEGIC>MOL_PROPERTY
U+W
SciTegic.value.DoubleValue
-13.203

@<SCITEGIC>MOL_PROPERTY
Grad RMS
SciTegic.value.DoubleValue
0.000000

@<SCITEGIC>MOL_PROPERTY
U
SciTegic.value.DoubleValue
47.423

@<SCITEGIC>MOL_PROPERTY
W
SciTegic.value.DoubleValue
-60.626

@<SCITEGIC>MOL_PROPERTY
W(PB)
SciTegic.value.DoubleValue
-62.328

@<SCITEGIC>MOL_PROPERTY
W(SA)
SciTegic.value.DoubleValue
1.702

@<SCITEGIC>MOL_PROPERTY
Valence
SciTegic.value.DoubleValue
2.414

@<SCITEGIC>MOL_PROPERTY
Coulomb
SciTegic.value.DoubleValue
44.831

@<SCITEGIC>MOL_PROPERTY
VdW
SciTegic.value.DoubleValue
0.178

@<SCITEGIC>MOL_PROPERTY
VdW6
SciTegic.value.DoubleValue
-3.743

@<SCITEGIC>MOL_PROPERTY
VdW12
SciTegic.value.DoubleValue
3.921

@<SCITEGIC>MOL_PROPERTY
Bond
SciTegic.value.DoubleValue
0.138

@<SCITEGIC>MOL_PROPERTY
Angle
SciTegic.value.DoubleValue
0.941

@<SCITEGIC>MOL_PROPERTY
Pdih
SciTegic.value.DoubleValue
1.335

@<SCITEGIC>MOL_PROPERTY
Idih
SciTegic.value.DoubleValue
0.000

@<SCITEGIC>MOL_PROPERTY
Tether
SciTegic.value.DoubleValue
0.000

@<TRIPOS>MOLECULE
guest-1_confgen4.mol2 : confsearch ligand conformer 310
          17          16           1
SMALL
USER_CHARGES
 
@<TRIPOS>ATOM
       1    N1      19.124352   17.368722   21.732610 N.4        1 MOL1        -0.5891
       2    H1      18.399368   16.728155   21.393648 H          1 MOL1         0.3726
       3    H2      19.526950   16.943606   22.573247 H          1 MOL1         0.3726
       4    H3      19.862190   17.391720   21.024154 H          1 MOL1         0.3726
       5    C1      18.569262   18.752265   22.011402 C.3        1 MOL1         0.0314
       6    H4      17.794522   18.638204   22.774491 H          1 MOL1         0.0999
       7    H5      18.093936   19.126632   21.100789 H          1 MOL1         0.0999
       8    C2      19.618807   19.768610   22.508504 C.3        1 MOL1        -0.1308
       9    H6      19.084290   20.574943   23.028085 H          1 MOL1         0.1025
      10    H7      20.266074   19.301653   23.262643 H          1 MOL1         0.1025
      11    C3      20.474365   20.409949   21.386270 C.3        1 MOL1        -0.1243
      12    H8      21.108340   21.187112   21.835806 H          1 MOL1         0.1025
      13    H9      19.818891   20.928106   20.672205 H          1 MOL1         0.1025
      14    C4      21.380143   19.415065   20.625579 C.3        1 MOL1        -0.2258
      15    H10     21.981242   18.812732   21.319140 H          1 MOL1         0.1036
      16    H11     22.073062   19.956978   19.968806 H          1 MOL1         0.1036
      17    H12     20.793419   18.742394   19.989224 H          1 MOL1         0.1036
@<TRIPOS>BOND
    1     1     2    1
    2     1     3    1
    3     1     4    1
    4     1     5    1
    5     5     6    1
    6     5     7    1
    7     5     8    1
    8     8     9    1
    9     8    10    1
   10     8    11    1
   11    11    12    1
   12    11    13    1
   13    11    14    1
   14    14    15    1
   15    14    16    1
   16    14    17    1
@<TRIPOS>SUBSTRUCTURE
       1 MOL1            1 RESIDUE      1      MOL     
@<SCITEGIC>MOL_PROPERTY
VConf Rank
SciTegic.value.IntegerValue
310

@<SCITEGIC>MOL_PROPERTY
Conf_Id
SciTegic.value.IntegerValue
44

@<SCITEGIC>MOL_PROPERTY
Delta U+W
SciTegic.value.DoubleValue
2.712

@<SCITEGIC>MOL_PROPERTY
U+W
SciTegic.value.DoubleValue
-13.153

@<SCITEGIC>MOL_PROPERTY
Grad RMS
SciTegic.value.DoubleValue
0.000000

@<SCITEGIC>MOL_PROPERTY
U
SciTegic.value.DoubleValue
47.423

@<SCITEGIC>MOL_PROPERTY
W
SciTegic.value.DoubleValue
-60.576

@<SCITEGIC>MOL_PROPERTY
W(PB)
SciTegic.value.DoubleValue
-62.262

@<SCITEGIC>MOL_PROPERTY
W(SA)
SciTegic.value.DoubleValue
1.687

@<SCITEGIC>MOL_PROPERTY
Valence
SciTegic.value.DoubleValue
2.414

@<SCITEGIC>MOL_PROPERTY
Coulomb
SciTegic.value.DoubleValue
44.831

@<SCITEGIC>MOL_PROPERTY
VdW
SciTegic.value.DoubleValue
0.178

@<SCITEGIC>MOL_PROPERTY
VdW6
SciTegic.value.DoubleValue
-3.743

@<SCITEGIC>MOL_PROPERTY
VdW12
SciTegic.value.DoubleValue
3.922

@<SCITEGIC>MOL_PROPERTY
Bond
SciTegic.value.DoubleValue
0.138

@<SCITEGIC>MOL_PROPERTY
Angle
SciTegic.value.DoubleValue
0.941

@<SCITEGIC>MOL_PROPERTY
Pdih
SciTegic.value.DoubleValue
1.335

@<SCITEGIC>MOL_PROPERTY
Idih
SciTegic.value.DoubleValue
0.000

@<SCITEGIC>MOL_PROPERTY
Tether
SciTegic.value.DoubleValue
0.000

@<TRIPOS>MOLECULE
guest-1_confgen4.mol2 : confsearch ligand conformer 311
          17          16           1
SMALL
USER_CHARGES
 
@<TRIPOS>ATOM
       1    N1      21.620382   18.163162   22.131669 N.4        1 MOL1        -0.5891
       2    H1      21.105319   18.368508   22.992477 H          1 MOL1         0.3726
       3    H2      22.408917   18.815582   22.087619 H          1 MOL1         0.3726
       4    H3      22.016848   17.223814   22.237063 H          1 MOL1         0.3726
       5    C1      20.731744   18.266150   20.907098 C.3        1 MOL1         0.0314
       6    H4      19.932457   17.526928   21.004544 H          1 MOL1         0.0999
       7    H5      21.334526   17.998952   20.034862 H          1 MOL1         0.0999
       8    C2      20.121647   19.667338   20.696450 C.3        1 MOL1        -0.1308
       9    H6      20.931464   20.396083   20.559054 H          1 MOL1         0.1025
      10    H7      19.550721   19.664437   19.758453 H          1 MOL1         0.1025
      11    C3      19.200929   20.133731   21.851574 C.3        1 MOL1        -0.1243
      12    H8      18.827149   21.141275   21.621250 H          1 MOL1         0.1025
      13    H9      19.779641   20.230248   22.780245 H          1 MOL1         0.1025
      14    C4      17.996872   19.192416   22.083895 C.3        1 MOL1        -0.2258
      15    H10     17.401164   19.080483   21.168652 H          1 MOL1         0.1036
      16    H11     17.338451   19.594962   22.864539 H          1 MOL1         0.1036
      17    H12     18.320411   18.194693   22.406105 H          1 MOL1         0.1036
@<TRIPOS>BOND
    1     1     2    1
    2     1     3    1
    3     1     4    1
    4     1     5    1
    5     5     6    1
    6     5     7    1
    7     5     8    1
    8     8     9    1
    9     8    10    1
   10     8    11    1
   11    11    12    1
   12    11    13    1
   13    11    14    1
   14    14    15    1
   15    14    16    1
   16    14    17    1
@<TRIPOS>SUBSTRUCTURE
       1 MOL1            1 RESIDUE      1      MOL     
@<SCITEGIC>MOL_PROPERTY
VConf Rank
SciTegic.value.IntegerValue
311

@<SCITEGIC>MOL_PROPERTY
Conf_Id
SciTegic.value.IntegerValue
1

@<SCITEGIC>MOL_PROPERTY
Delta U+W
SciTegic.value.DoubleValue
0.685

@<SCITEGIC>MOL_PROPERTY
U+W
SciTegic.value.DoubleValue
-15.179

@<SCITEGIC>MOL_PROPERTY
Grad RMS
SciTegic.value.DoubleValue
0.000000

@<SCITEGIC>MOL_PROPERTY
U
SciTegic.value.DoubleValue
45.697

@<SCITEGIC>MOL_PROPERTY
W
SciTegic.value.DoubleValue
-60.876

@<SCITEGIC>MOL_PROPERTY
W(PB)
SciTegic.value.DoubleValue
-62.586

@<SCITEGIC>MOL_PROPERTY
W(SA)
SciTegic.value.DoubleValue
1.710

@<SCITEGIC>MOL_PROPERTY
Valence
SciTegic.value.DoubleValue
1.263

@<SCITEGIC>MOL_PROPERTY
Coulomb
SciTegic.value.DoubleValue
44.179

@<SCITEGIC>MOL_PROPERTY
VdW
SciTegic.value.DoubleValue
0.255

@<SCITEGIC>MOL_PROPERTY
VdW6
SciTegic.value.DoubleValue
-3.552

@<SCITEGIC>MOL_PROPERTY
VdW12
SciTegic.value.DoubleValue
3.807

@<SCITEGIC>MOL_PROPERTY
Bond
SciTegic.value.DoubleValue
0.125

@<SCITEGIC>MOL_PROPERTY
Angle
SciTegic.value.DoubleValue
0.616

@<SCITEGIC>MOL_PROPERTY
Pdih
SciTegic.value.DoubleValue
0.521

@<SCITEGIC>MOL_PROPERTY
Idih
SciTegic.value.DoubleValue
0.000

@<SCITEGIC>MOL_PROPERTY
Tether
SciTegic.value.DoubleValue
0.000

@<TRIPOS>MOLECULE
guest-1_confgen4.mol2 : confsearch ligand conformer 312
          17          16           1
SMALL
USER_CHARGES
 
@<TRIPOS>ATOM
       1    N1      20.044976   18.609621   19.661612 N.4        1 MOL1        -0.5891
       2    H1      20.387152   19.411231   19.123359 H          1 MOL1         0.3726
       3    H2      19.058200   18.784865   19.871400 H          1 MOL1         0.3726
       4    H3      20.078561   17.796506   19.038409 H          1 MOL1         0.3726
       5    C1      20.856655   18.387217   20.923187 C.3        1 MOL1         0.0314
       6    H4      21.885432   18.169982   20.623246 H          1 MOL1         0.0999
       7    H5      20.459463   17.504634   21.431213 H          1 MOL1         0.0999
       8    C2      20.849399   19.590496   21.888581 C.3        1 MOL1        -0.1308
       9    H6      21.510210   19.364853   22.736058 H          1 MOL1         0.1025
      10    H7      21.287580   20.461044   21.382723 H          1 MOL1         0.1025
      11    C3      19.443531   19.960586   22.423488 C.3        1 MOL1        -0.1243
      12    H8      18.795785   20.277879   21.594993 H          1 MOL1         0.1025
      13    H9      19.535572   20.831838   23.087079 H          1 MOL1         0.1025
      14    C4      18.768155   18.807049   23.200031 C.3        1 MOL1        -0.2258
      15    H10     17.806064   19.133937   23.615354 H          1 MOL1         0.1036
      16    H11     19.396882   18.472485   24.035397 H          1 MOL1         0.1036
      17    H12     18.572369   17.943816   22.551613 H          1 MOL1         0.1036
@<TRIPOS>BOND
    1     1     2    1
    2     1     3    1
    3     1     4    1
    4     1     5    1
    5     5     6    1
    6     5     7    1
    7     5     8    1
    8     8     9    1
    9     8    10    1
   10     8    11    1
   11    11    12    1
   12    11    13    1
   13    11    14    1
   14    14    15    1
   15    14    16    1
   16    14    17    1
@<TRIPOS>SUBSTRUCTURE
       1 MOL1            1 RESIDUE      1      MOL     
@<SCITEGIC>MOL_PROPERTY
VConf Rank
SciTegic.value.IntegerValue
312

@<SCITEGIC>MOL_PROPERTY
Conf_Id
SciTegic.value.IntegerValue
43

@<SCITEGIC>MOL_PROPERTY
Delta U+W
SciTegic.value.DoubleValue
0.642

@<SCITEGIC>MOL_PROPERTY
U+W
SciTegic.value.DoubleValue
-15.222

@<SCITEGIC>MOL_PROPERTY
Grad RMS
SciTegic.value.DoubleValue
0.000000

@<SCITEGIC>MOL_PROPERTY
U
SciTegic.value.DoubleValue
45.697

@<SCITEGIC>MOL_PROPERTY
W
SciTegic.value.DoubleValue
-60.919

@<SCITEGIC>MOL_PROPERTY
W(PB)
SciTegic.value.DoubleValue
-62.631

@<SCITEGIC>MOL_PROPERTY
W(SA)
SciTegic.value.DoubleValue
1.712

@<SCITEGIC>MOL_PROPERTY
Valence
SciTegic.value.DoubleValue
1.262

@<SCITEGIC>MOL_PROPERTY
Coulomb
SciTegic.value.DoubleValue
44.179

@<SCITEGIC>MOL_PROPERTY
VdW
SciTegic.value.DoubleValue
0.255

@<SCITEGIC>MOL_PROPERTY
VdW6
SciTegic.value.DoubleValue
-3.552

@<SCITEGIC>MOL_PROPERTY
VdW12
SciTegic.value.DoubleValue
3.807

@<SCITEGIC>MOL_PROPERTY
Bond
SciTegic.value.DoubleValue
0.125

@<SCITEGIC>MOL_PROPERTY
Angle
SciTegic.value.DoubleValue
0.616

@<SCITEGIC>MOL_PROPERTY
Pdih
SciTegic.value.DoubleValue
0.521

@<SCITEGIC>MOL_PROPERTY
Idih
SciTegic.value.DoubleValue
0.000

@<SCITEGIC>MOL_PROPERTY
Tether
SciTegic.value.DoubleValue
0.000

@<TRIPOS>MOLECULE
guest-1_confgen4.mol2 : confsearch ligand conformer 313
          17          16           1
SMALL
USER_CHARGES
 
@<TRIPOS>ATOM
       1    N1      20.364415   19.030433   24.136327 N.4        1 MOL1        -0.5891
       2    H1      19.477676   19.459035   24.418623 H          1 MOL1         0.3726
       3    H2      21.076653   19.766367   24.164870 H          1 MOL1         0.3726
       4    H3      20.610370   18.351777   24.864229 H          1 MOL1         0.3726
       5    C1      20.272095   18.382115   22.769390 C.3        1 MOL1         0.0314
       6    H4      19.519278   17.590848   22.821201 H          1 MOL1         0.0999
       7    H5      21.238689   17.921286   22.548350 H          1 MOL1         0.0999
       8    C2      19.903986   19.374097   21.651030 C.3        1 MOL1        -0.1308
       9    H6      18.940282   19.846251   21.884133 H          1 MOL1         0.1025
      10    H7      20.653846   20.175462   21.612121 H          1 MOL1         0.1025
      11    C3      19.820408   18.673780   20.276951 C.3        1 MOL1        -0.1243
      12    H8      19.072318   17.869327   20.316235 H          1 MOL1         0.1025
      13    H9      20.783800   18.198201   20.044517 H          1 MOL1         0.1025
      14    C4      19.451466   19.662717   19.150079 C.3        1 MOL1        -0.2258
      15    H10     19.397173   19.146076   18.183030 H          1 MOL1         0.1036
      16    H11     20.200461   20.460651   19.063397 H          1 MOL1         0.1036
      17    H12     18.475491   20.129223   19.337301 H          1 MOL1         0.1036
@<TRIPOS>BOND
    1     1     2    1
    2     1     3    1
    3     1     4    1
    4     1     5    1
    5     5     6    1
    6     5     7    1
    7     5     8    1
    8     8     9    1
    9     8    10    1
   10     8    11    1
   11    11    12    1
   12    11    13    1
   13    11    14    1
   14    14    15    1
   15    14    16    1
   16    14    17    1
@<TRIPOS>SUBSTRUCTURE
       1 MOL1            1 RESIDUE      1      MOL     
@<SCITEGIC>MOL_PROPERTY
VConf Rank
SciTegic.value.IntegerValue
313

@<SCITEGIC>MOL_PROPERTY
Conf_Id
SciTegic.value.IntegerValue
7

@<SCITEGIC>MOL_PROPERTY
Delta U+W
SciTegic.value.DoubleValue
0.000

@<SCITEGIC>MOL_PROPERTY
U+W
SciTegic.value.DoubleValue
-15.865

@<SCITEGIC>MOL_PROPERTY
Grad RMS
SciTegic.value.DoubleValue
0.000000

@<SCITEGIC>MOL_PROPERTY
U
SciTegic.value.DoubleValue
44.664

@<SCITEGIC>MOL_PROPERTY
W
SciTegic.value.DoubleValue
-60.529

@<SCITEGIC>MOL_PROPERTY
W(PB)
SciTegic.value.DoubleValue
-62.309

@<SCITEGIC>MOL_PROPERTY
W(SA)
SciTegic.value.DoubleValue
1.780

@<SCITEGIC>MOL_PROPERTY
Valence
SciTegic.value.DoubleValue
0.872

@<SCITEGIC>MOL_PROPERTY
Coulomb
SciTegic.value.DoubleValue
43.648

@<SCITEGIC>MOL_PROPERTY
VdW
SciTegic.value.DoubleValue
0.144

@<SCITEGIC>MOL_PROPERTY
VdW6
SciTegic.value.DoubleValue
-2.370

@<SCITEGIC>MOL_PROPERTY
VdW12
SciTegic.value.DoubleValue
2.515

@<SCITEGIC>MOL_PROPERTY
Bond
SciTegic.value.DoubleValue
0.080

@<SCITEGIC>MOL_PROPERTY
Angle
SciTegic.value.DoubleValue
0.376

@<SCITEGIC>MOL_PROPERTY
Pdih
SciTegic.value.DoubleValue
0.416

@<SCITEGIC>MOL_PROPERTY
Idih
SciTegic.value.DoubleValue
0.000

@<SCITEGIC>MOL_PROPERTY
Tether
SciTegic.value.DoubleValue
0.000

@<TRIPOS>MOLECULE
guest-1_confgen4.mol2 : confsearch ligand conformer 314
          17          16           1
SMALL
USER_CHARGES
 
@<TRIPOS>ATOM
       1    N1      19.734204   21.261609   20.571247 N.4        1 MOL1        -0.5891
       2    H1      18.772307   21.595892   20.683750 H          1 MOL1         0.3726
       3    H2      19.834294   20.955386   19.598696 H          1 MOL1         0.3726
       4    H3      20.346370   22.075192   20.690319 H          1 MOL1         0.3726
       5    C1      20.069345   20.155600   21.551951 C.3        1 MOL1         0.0314
       6    H4      19.971074   20.559409   22.563232 H          1 MOL1         0.0999
       7    H5      21.113626   19.873058   21.395470 H          1 MOL1         0.0999
       8    C2      19.167124   18.915907   21.399912 C.3        1 MOL1        -0.1308
       9    H6      18.118012   19.217628   21.519095 H          1 MOL1         0.1025
      10    H7      19.264566   18.511337   20.383685 H          1 MOL1         0.1025
      11    C3      19.493223   17.810740   22.431548 C.3        1 MOL1        -0.1243
      12    H8      18.765883   16.994101   22.321731 H          1 MOL1         0.1025
      13    H9      19.363872   18.204592   23.449551 H          1 MOL1         0.1025
      14    C4      20.920824   17.238933   22.273595 C.3        1 MOL1        -0.2258
      15    H10     21.078400   16.843707   21.261622 H          1 MOL1         0.1036
      16    H11     21.087361   16.418089   22.983163 H          1 MOL1         0.1036
      17    H12     21.684895   18.002594   22.466233 H          1 MOL1         0.1036
@<TRIPOS>BOND
    1     1     2    1
    2     1     3    1
    3     1     4    1
    4     1     5    1
    5     5     6    1
    6     5     7    1
    7     5     8    1
    8     8     9    1
    9     8    10    1
   10     8    11    1
   11    11    12    1
   12    11    13    1
   13    11    14    1
   14    14    15    1
   15    14    16    1
   16    14    17    1
@<TRIPOS>SUBSTRUCTURE
       1 MOL1            1 RESIDUE      1      MOL     
@<SCITEGIC>MOL_PROPERTY
VConf Rank
SciTegic.value.IntegerValue
314

@<SCITEGIC>MOL_PROPERTY
Conf_Id
SciTegic.value.IntegerValue
36

@<SCITEGIC>MOL_PROPERTY
Delta U+W
SciTegic.value.DoubleValue
0.275

@<SCITEGIC>MOL_PROPERTY
U+W
SciTegic.value.DoubleValue
-15.590

@<SCITEGIC>MOL_PROPERTY
Grad RMS
SciTegic.value.DoubleValue
0.000000

@<SCITEGIC>MOL_PROPERTY
U
SciTegic.value.DoubleValue
45.174

@<SCITEGIC>MOL_PROPERTY
W
SciTegic.value.DoubleValue
-60.765

@<SCITEGIC>MOL_PROPERTY
W(PB)
SciTegic.value.DoubleValue
-62.518

@<SCITEGIC>MOL_PROPERTY
W(SA)
SciTegic.value.DoubleValue
1.754

@<SCITEGIC>MOL_PROPERTY
Valence
SciTegic.value.DoubleValue
1.161

@<SCITEGIC>MOL_PROPERTY
Coulomb
SciTegic.value.DoubleValue
43.789

@<SCITEGIC>MOL_PROPERTY
VdW
SciTegic.value.DoubleValue
0.224

@<SCITEGIC>MOL_PROPERTY
VdW6
SciTegic.value.DoubleValue
-2.897

@<SCITEGIC>MOL_PROPERTY
VdW12
SciTegic.value.DoubleValue
3.121

@<SCITEGIC>MOL_PROPERTY
Bond
SciTegic.value.DoubleValue
0.100

@<SCITEGIC>MOL_PROPERTY
Angle
SciTegic.value.DoubleValue
0.500

@<SCITEGIC>MOL_PROPERTY
Pdih
SciTegic.value.DoubleValue
0.561

@<SCITEGIC>MOL_PROPERTY
Idih
SciTegic.value.DoubleValue
0.000

@<SCITEGIC>MOL_PROPERTY
Tether
SciTegic.value.DoubleValue
0.000

@<TRIPOS>MOLECULE
guest-1_confgen4.mol2 : confsearch ligand conformer 315
          17          16           1
SMALL
USER_CHARGES
 
@<TRIPOS>ATOM
       1    N1      18.359257   18.376029   22.368042 N.4        1 MOL1        -0.5891
       2    H1      18.362773   18.227106   21.355790 H          1 MOL1         0.3726
       3    H2      17.790995   19.209190   22.548043 H          1 MOL1         0.3726
       4    H3      17.865078   17.582584   22.788819 H          1 MOL1         0.3726
       5    C1      19.764354   18.522321   22.919705 C.3        1 MOL1         0.0314
       6    H4      20.300468   17.582919   22.760308 H          1 MOL1         0.0999
       7    H5      19.669971   18.678683   23.997749 H          1 MOL1         0.0999
       8    C2      20.566603   19.691439   22.310465 C.3        1 MOL1        -0.1308
       9    H6      19.933957   20.586423   22.243451 H          1 MOL1         0.1025
      10    H7      21.373481   19.944788   23.010899 H          1 MOL1         0.1025
      11    C3      21.209758   19.381559   20.934590 C.3        1 MOL1        -0.1243
      12    H8      21.889186   18.522814   21.029223 H          1 MOL1         0.1025
      13    H9      21.838278   20.235826   20.646180 H          1 MOL1         0.1025
      14    C4      20.194521   19.112530   19.800659 C.3        1 MOL1        -0.2258
      15    H10     19.683607   18.152360   19.937469 H          1 MOL1         0.1036
      16    H11     20.708970   19.068536   18.831864 H          1 MOL1         0.1036
      17    H12     19.441941   19.909610   19.742006 H          1 MOL1         0.1036
@<TRIPOS>BOND
    1     1     2    1
    2     1     3    1
    3     1     4    1
    4     1     5    1
    5     5     6    1
    6     5     7    1
    7     5     8    1
    8     8     9    1
    9     8    10    1
   10     8    11    1
   11    11    12    1
   12    11    13    1
   13    11    14    1
   14    14    15    1
   15    14    16    1
   16    14    17    1
@<TRIPOS>SUBSTRUCTURE
       1 MOL1            1 RESIDUE      1      MOL     
@<SCITEGIC>MOL_PROPERTY
VConf Rank
SciTegic.value.IntegerValue
315

@<SCITEGIC>MOL_PROPERTY
Conf_Id
SciTegic.value.IntegerValue
19

@<SCITEGIC>MOL_PROPERTY
Delta U+W
SciTegic.value.DoubleValue
2.662

@<SCITEGIC>MOL_PROPERTY
U+W
SciTegic.value.DoubleValue
-13.203

@<SCITEGIC>MOL_PROPERTY
Grad RMS
SciTegic.value.DoubleValue
0.000000

@<SCITEGIC>MOL_PROPERTY
U
SciTegic.value.DoubleValue
47.423

@<SCITEGIC>MOL_PROPERTY
W
SciTegic.value.DoubleValue
-60.626

@<SCITEGIC>MOL_PROPERTY
W(PB)
SciTegic.value.DoubleValue
-62.328

@<SCITEGIC>MOL_PROPERTY
W(SA)
SciTegic.value.DoubleValue
1.702

@<SCITEGIC>MOL_PROPERTY
Valence
SciTegic.value.DoubleValue
2.414

@<SCITEGIC>MOL_PROPERTY
Coulomb
SciTegic.value.DoubleValue
44.831

@<SCITEGIC>MOL_PROPERTY
VdW
SciTegic.value.DoubleValue
0.178

@<SCITEGIC>MOL_PROPERTY
VdW6
SciTegic.value.DoubleValue
-3.743

@<SCITEGIC>MOL_PROPERTY
VdW12
SciTegic.value.DoubleValue
3.921

@<SCITEGIC>MOL_PROPERTY
Bond
SciTegic.value.DoubleValue
0.138

@<SCITEGIC>MOL_PROPERTY
Angle
SciTegic.value.DoubleValue
0.941

@<SCITEGIC>MOL_PROPERTY
Pdih
SciTegic.value.DoubleValue
1.335

@<SCITEGIC>MOL_PROPERTY
Idih
SciTegic.value.DoubleValue
0.000

@<SCITEGIC>MOL_PROPERTY
Tether
SciTegic.value.DoubleValue
0.000

@<TRIPOS>MOLECULE
guest-1_confgen4.mol2 : confsearch ligand conformer 316
          17          16           1
SMALL
USER_CHARGES
 
@<TRIPOS>ATOM
       1    N1      21.377751   18.715198   20.554704 N.4        1 MOL1        -0.5891
       2    H1      21.954026   19.015524   19.761902 H          1 MOL1         0.3726
       3    H2      21.684783   17.770172   20.803978 H          1 MOL1         0.3726
       4    H3      21.608481   19.324470   21.343624 H          1 MOL1         0.3726
       5    C1      19.898073   18.758345   20.224960 C.3        1 MOL1         0.0314
       6    H4      19.739064   18.083594   19.379404 H          1 MOL1         0.0999
       7    H5      19.642880   19.771067   19.901584 H          1 MOL1         0.0999
       8    C2      18.976366   18.333419   21.387503 C.3        1 MOL1        -0.1308
       9    H6      18.011107   18.034654   20.957548 H          1 MOL1         0.1025
      10    H7      19.378460   17.436549   21.877067 H          1 MOL1         0.1025
      11    C3      18.708219   19.444715   22.434319 C.3        1 MOL1        -0.1243
      12    H8      17.963896   19.071806   23.151893 H          1 MOL1         0.1025
      13    H9      18.247373   20.312675   21.942093 H          1 MOL1         0.1025
      14    C4      19.960533   19.901211   23.216752 C.3        1 MOL1        -0.2258
      15    H10     20.498613   19.044438   23.642853 H          1 MOL1         0.1036
      16    H11     19.671736   20.559123   24.046755 H          1 MOL1         0.1036
      17    H12     20.647850   20.469887   22.579664 H          1 MOL1         0.1036
@<TRIPOS>BOND
    1     1     2    1
    2     1     3    1
    3     1     4    1
    4     1     5    1
    5     5     6    1
    6     5     7    1
    7     5     8    1
    8     8     9    1
    9     8    10    1
   10     8    11    1
   11    11    12    1
   12    11    13    1
   13    11    14    1
   14    14    15    1
   15    14    16    1
   16    14    17    1
@<TRIPOS>SUBSTRUCTURE
       1 MOL1            1 RESIDUE      1      MOL     
@<SCITEGIC>MOL_PROPERTY
VConf Rank
SciTegic.value.IntegerValue
316

@<SCITEGIC>MOL_PROPERTY
Conf_Id
SciTegic.value.IntegerValue
44

@<SCITEGIC>MOL_PROPERTY
Delta U+W
SciTegic.value.DoubleValue
2.712

@<SCITEGIC>MOL_PROPERTY
U+W
SciTegic.value.DoubleValue
-13.153

@<SCITEGIC>MOL_PROPERTY
Grad RMS
SciTegic.value.DoubleValue
0.000000

@<SCITEGIC>MOL_PROPERTY
U
SciTegic.value.DoubleValue
47.423

@<SCITEGIC>MOL_PROPERTY
W
SciTegic.value.DoubleValue
-60.576

@<SCITEGIC>MOL_PROPERTY
W(PB)
SciTegic.value.DoubleValue
-62.262

@<SCITEGIC>MOL_PROPERTY
W(SA)
SciTegic.value.DoubleValue
1.687

@<SCITEGIC>MOL_PROPERTY
Valence
SciTegic.value.DoubleValue
2.414

@<SCITEGIC>MOL_PROPERTY
Coulomb
SciTegic.value.DoubleValue
44.831

@<SCITEGIC>MOL_PROPERTY
VdW
SciTegic.value.DoubleValue
0.178

@<SCITEGIC>MOL_PROPERTY
VdW6
SciTegic.value.DoubleValue
-3.743

@<SCITEGIC>MOL_PROPERTY
VdW12
SciTegic.value.DoubleValue
3.922

@<SCITEGIC>MOL_PROPERTY
Bond
SciTegic.value.DoubleValue
0.138

@<SCITEGIC>MOL_PROPERTY
Angle
SciTegic.value.DoubleValue
0.941

@<SCITEGIC>MOL_PROPERTY
Pdih
SciTegic.value.DoubleValue
1.335

@<SCITEGIC>MOL_PROPERTY
Idih
SciTegic.value.DoubleValue
0.000

@<SCITEGIC>MOL_PROPERTY
Tether
SciTegic.value.DoubleValue
0.000

@<TRIPOS>MOLECULE
guest-1_confgen4.mol2 : confsearch ligand conformer 317
          17          16           1
SMALL
USER_CHARGES
 
@<TRIPOS>ATOM
       1    N1      21.611820   19.937732   22.119850 N.4        1 MOL1        -0.5891
       2    H1      20.909363   20.189551   22.820983 H          1 MOL1         0.3726
       3    H2      21.784903   20.772109   21.551311 H          1 MOL1         0.3726
       4    H3      22.480510   19.736653   22.625433 H          1 MOL1         0.3726
       5    C1      21.165388   18.760070   21.275062 C.3        1 MOL1         0.0314
       6    H4      21.027959   17.900643   21.936352 H          1 MOL1         0.0999
       7    H5      21.974487   18.524323   20.578413 H          1 MOL1         0.0999
       8    C2      19.867762   19.018984   20.481935 C.3        1 MOL1        -0.1308
       9    H6      20.028554   19.857674   19.791649 H          1 MOL1         0.1025
      10    H7      19.658852   18.142418   19.854405 H          1 MOL1         0.1025
      11    C3      18.634212   19.314334   21.371136 C.3        1 MOL1        -0.1243
      12    H8      17.766513   19.499001   20.722367 H          1 MOL1         0.1025
      13    H9      18.791092   20.241760   21.938519 H          1 MOL1         0.1025
      14    C4      18.297984   18.160036   22.342911 C.3        1 MOL1        -0.2258
      15    H10     18.135454   17.220683   21.798607 H          1 MOL1         0.1036
      16    H11     17.381868   18.384104   22.904597 H          1 MOL1         0.1036
      17    H12     19.101922   17.998687   23.072019 H          1 MOL1         0.1036
@<TRIPOS>BOND
    1     1     2    1
    2     1     3    1
    3     1     4    1
    4     1     5    1
    5     5     6    1
    6     5     7    1
    7     5     8    1
    8     8     9    1
    9     8    10    1
   10     8    11    1
   11    11    12    1
   12    11    13    1
   13    11    14    1
   14    14    15    1
   15    14    16    1
   16    14    17    1
@<TRIPOS>SUBSTRUCTURE
       1 MOL1            1 RESIDUE      1      MOL     
@<SCITEGIC>MOL_PROPERTY
VConf Rank
SciTegic.value.IntegerValue
317

@<SCITEGIC>MOL_PROPERTY
Conf_Id
SciTegic.value.IntegerValue
1

@<SCITEGIC>MOL_PROPERTY
Delta U+W
SciTegic.value.DoubleValue
0.685

@<SCITEGIC>MOL_PROPERTY
U+W
SciTegic.value.DoubleValue
-15.179

@<SCITEGIC>MOL_PROPERTY
Grad RMS
SciTegic.value.DoubleValue
0.000000

@<SCITEGIC>MOL_PROPERTY
U
SciTegic.value.DoubleValue
45.697

@<SCITEGIC>MOL_PROPERTY
W
SciTegic.value.DoubleValue
-60.876

@<SCITEGIC>MOL_PROPERTY
W(PB)
SciTegic.value.DoubleValue
-62.586

@<SCITEGIC>MOL_PROPERTY
W(SA)
SciTegic.value.DoubleValue
1.710

@<SCITEGIC>MOL_PROPERTY
Valence
SciTegic.value.DoubleValue
1.263

@<SCITEGIC>MOL_PROPERTY
Coulomb
SciTegic.value.DoubleValue
44.179

@<SCITEGIC>MOL_PROPERTY
VdW
SciTegic.value.DoubleValue
0.255

@<SCITEGIC>MOL_PROPERTY
VdW6
SciTegic.value.DoubleValue
-3.552

@<SCITEGIC>MOL_PROPERTY
VdW12
SciTegic.value.DoubleValue
3.807

@<SCITEGIC>MOL_PROPERTY
Bond
SciTegic.value.DoubleValue
0.125

@<SCITEGIC>MOL_PROPERTY
Angle
SciTegic.value.DoubleValue
0.616

@<SCITEGIC>MOL_PROPERTY
Pdih
SciTegic.value.DoubleValue
0.521

@<SCITEGIC>MOL_PROPERTY
Idih
SciTegic.value.DoubleValue
0.000

@<SCITEGIC>MOL_PROPERTY
Tether
SciTegic.value.DoubleValue
0.000

@<TRIPOS>MOLECULE
guest-1_confgen4.mol2 : confsearch ligand conformer 318
          17          16           1
SMALL
USER_CHARGES
 
@<TRIPOS>ATOM
       1    N1      18.331992   19.881487   20.774383 N.4        1 MOL1        -0.5891
       2    H1      17.462072   19.465176   21.119785 H          1 MOL1         0.3726
       3    H2      18.721626   19.236770   20.080859 H          1 MOL1         0.3726
       4    H3      18.073923   20.738376   20.274574 H          1 MOL1         0.3726
       5    C1      19.312324   20.157480   21.898053 C.3        1 MOL1         0.0314
       6    H4      18.846983   20.877672   22.576520 H          1 MOL1         0.0999
       7    H5      20.200685   20.625578   21.466192 H          1 MOL1         0.0999
       8    C2      19.720913   18.898936   22.691175 C.3        1 MOL1        -0.1308
       9    H6      20.376426   19.202416   23.518222 H          1 MOL1         0.1025
      10    H7      18.827793   18.459280   23.154627 H          1 MOL1         0.1025
      11    C3      20.440330   17.823495   21.839457 C.3        1 MOL1        -0.1243
      12    H8      19.763858   17.442559   21.062329 H          1 MOL1         0.1025
      13    H9      20.678242   16.964189   22.482026 H          1 MOL1         0.1025
      14    C4      21.743818   18.339362   21.187845 C.3        1 MOL1        -0.2258
      15    H10     22.252330   17.528793   20.649921 H          1 MOL1         0.1036
      16    H11     22.438018   18.725060   21.945731 H          1 MOL1         0.1036
      17    H12     21.544653   19.141411   20.466043 H          1 MOL1         0.1036
@<TRIPOS>BOND
    1     1     2    1
    2     1     3    1
    3     1     4    1
    4     1     5    1
    5     5     6    1
    6     5     7    1
    7     5     8    1
    8     8     9    1
    9     8    10    1
   10     8    11    1
   11    11    12    1
   12    11    13    1
   13    11    14    1
   14    14    15    1
   15    14    16    1
   16    14    17    1
@<TRIPOS>SUBSTRUCTURE
       1 MOL1            1 RESIDUE      1      MOL     
@<SCITEGIC>MOL_PROPERTY
VConf Rank
SciTegic.value.IntegerValue
318

@<SCITEGIC>MOL_PROPERTY
Conf_Id
SciTegic.value.IntegerValue
43

@<SCITEGIC>MOL_PROPERTY
Delta U+W
SciTegic.value.DoubleValue
0.642

@<SCITEGIC>MOL_PROPERTY
U+W
SciTegic.value.DoubleValue
-15.222

@<SCITEGIC>MOL_PROPERTY
Grad RMS
SciTegic.value.DoubleValue
0.000000

@<SCITEGIC>MOL_PROPERTY
U
SciTegic.value.DoubleValue
45.697

@<SCITEGIC>MOL_PROPERTY
W
SciTegic.value.DoubleValue
-60.919

@<SCITEGIC>MOL_PROPERTY
W(PB)
SciTegic.value.DoubleValue
-62.631

@<SCITEGIC>MOL_PROPERTY
W(SA)
SciTegic.value.DoubleValue
1.712

@<SCITEGIC>MOL_PROPERTY
Valence
SciTegic.value.DoubleValue
1.262

@<SCITEGIC>MOL_PROPERTY
Coulomb
SciTegic.value.DoubleValue
44.179

@<SCITEGIC>MOL_PROPERTY
VdW
SciTegic.value.DoubleValue
0.255

@<SCITEGIC>MOL_PROPERTY
VdW6
SciTegic.value.DoubleValue
-3.552

@<SCITEGIC>MOL_PROPERTY
VdW12
SciTegic.value.DoubleValue
3.807

@<SCITEGIC>MOL_PROPERTY
Bond
SciTegic.value.DoubleValue
0.125

@<SCITEGIC>MOL_PROPERTY
Angle
SciTegic.value.DoubleValue
0.616

@<SCITEGIC>MOL_PROPERTY
Pdih
SciTegic.value.DoubleValue
0.521

@<SCITEGIC>MOL_PROPERTY
Idih
SciTegic.value.DoubleValue
0.000

@<SCITEGIC>MOL_PROPERTY
Tether
SciTegic.value.DoubleValue
0.000

@<TRIPOS>MOLECULE
guest-1_confgen4.mol2 : confsearch ligand conformer 319
          17          16           1
SMALL
USER_CHARGES
 
@<TRIPOS>ATOM
       1    N1      19.175603   18.673777   19.188261 N.4        1 MOL1        -0.5891
       2    H1      19.836027   19.310175   18.731606 H          1 MOL1         0.3726
       3    H2      18.280753   19.167904   19.257393 H          1 MOL1         0.3726
       4    H3      19.030820   17.887084   18.547121 H          1 MOL1         0.3726
       5    C1      19.675686   18.212315   20.542634 C.3        1 MOL1         0.0314
       6    H4      20.612392   17.669467   20.389600 H          1 MOL1         0.0999
       7    H5      18.939986   17.516439   20.954977 H          1 MOL1         0.0999
       8    C2      19.904120   19.369854   21.531665 C.3        1 MOL1        -0.1308
       9    H6      20.631777   20.074548   21.107503 H          1 MOL1         0.1025
      10    H7      18.965103   19.921950   21.671049 H          1 MOL1         0.1025
      11    C3      20.412697   18.856998   22.896893 C.3        1 MOL1        -0.1243
      12    H8      21.350914   18.301416   22.757596 H          1 MOL1         0.1025
      13    H9      19.686252   18.149066   23.320491 H          1 MOL1         0.1025
      14    C4      20.644191   20.012684   23.894268 C.3        1 MOL1        -0.2258
      15    H10     21.004978   19.627788   24.856940 H          1 MOL1         0.1036
      16    H11     19.714672   20.566299   24.080580 H          1 MOL1         0.1036
      17    H12     21.392435   20.719882   23.513205 H          1 MOL1         0.1036
@<TRIPOS>BOND
    1     1     2    1
    2     1     3    1
    3     1     4    1
    4     1     5    1
    5     5     6    1
    6     5     7    1
    7     5     8    1
    8     8     9    1
    9     8    10    1
   10     8    11    1
   11    11    12    1
   12    11    13    1
   13    11    14    1
   14    14    15    1
   15    14    16    1
   16    14    17    1
@<TRIPOS>SUBSTRUCTURE
       1 MOL1            1 RESIDUE      1      MOL     
@<SCITEGIC>MOL_PROPERTY
VConf Rank
SciTegic.value.IntegerValue
319

@<SCITEGIC>MOL_PROPERTY
Conf_Id
SciTegic.value.IntegerValue
7

@<SCITEGIC>MOL_PROPERTY
Delta U+W
SciTegic.value.DoubleValue
0.000

@<SCITEGIC>MOL_PROPERTY
U+W
SciTegic.value.DoubleValue
-15.865

@<SCITEGIC>MOL_PROPERTY
Grad RMS
SciTegic.value.DoubleValue
0.000000

@<SCITEGIC>MOL_PROPERTY
U
SciTegic.value.DoubleValue
44.664

@<SCITEGIC>MOL_PROPERTY
W
SciTegic.value.DoubleValue
-60.529

@<SCITEGIC>MOL_PROPERTY
W(PB)
SciTegic.value.DoubleValue
-62.309

@<SCITEGIC>MOL_PROPERTY
W(SA)
SciTegic.value.DoubleValue
1.780

@<SCITEGIC>MOL_PROPERTY
Valence
SciTegic.value.DoubleValue
0.872

@<SCITEGIC>MOL_PROPERTY
Coulomb
SciTegic.value.DoubleValue
43.648

@<SCITEGIC>MOL_PROPERTY
VdW
SciTegic.value.DoubleValue
0.144

@<SCITEGIC>MOL_PROPERTY
VdW6
SciTegic.value.DoubleValue
-2.370

@<SCITEGIC>MOL_PROPERTY
VdW12
SciTegic.value.DoubleValue
2.515

@<SCITEGIC>MOL_PROPERTY
Bond
SciTegic.value.DoubleValue
0.080

@<SCITEGIC>MOL_PROPERTY
Angle
SciTegic.value.DoubleValue
0.376

@<SCITEGIC>MOL_PROPERTY
Pdih
SciTegic.value.DoubleValue
0.416

@<SCITEGIC>MOL_PROPERTY
Idih
SciTegic.value.DoubleValue
0.000

@<SCITEGIC>MOL_PROPERTY
Tether
SciTegic.value.DoubleValue
0.000

@<TRIPOS>MOLECULE
guest-1_confgen4.mol2 : confsearch ligand conformer 320
          17          16           1
SMALL
USER_CHARGES
 
@<TRIPOS>ATOM
       1    N1      20.056528   17.835500   23.675071 N.4        1 MOL1        -0.5891
       2    H1      19.104849   17.634487   23.996861 H          1 MOL1         0.3726
       3    H2      20.425210   18.580764   24.273654 H          1 MOL1         0.3726
       4    H3      20.616570   16.998228   23.865257 H          1 MOL1         0.3726
       5    C1      20.091516   18.215937   22.208306 C.3        1 MOL1         0.0314
       6    H4      19.714413   17.368022   21.630170 H          1 MOL1         0.0999
       7    H5      21.135072   18.383969   21.929750 H          1 MOL1         0.0999
       8    C2      19.259152   19.472154   21.887296 C.3        1 MOL1        -0.1308
       9    H6      18.221670   19.307838   22.207465 H          1 MOL1         0.1025
      10    H7      19.636853   20.323380   22.469227 H          1 MOL1         0.1025
      11    C3      19.271063   19.826948   20.381977 C.3        1 MOL1        -0.1243
      12    H8      18.597914   20.678716   20.210676 H          1 MOL1         0.1025
      13    H9      18.862168   18.988482   19.800632 H          1 MOL1         0.1025
      14    C4      20.680334   20.184563   19.856596 C.3        1 MOL1        -0.2258
      15    H10     21.114582   21.016995   20.425463 H          1 MOL1         0.1036
      16    H11     20.632640   20.488235   18.802786 H          1 MOL1         0.1036
      17    H12     21.364849   19.329555   19.923612 H          1 MOL1         0.1036
@<TRIPOS>BOND
    1     1     2    1
    2     1     3    1
    3     1     4    1
    4     1     5    1
    5     5     6    1
    6     5     7    1
    7     5     8    1
    8     8     9    1
    9     8    10    1
   10     8    11    1
   11    11    12    1
   12    11    13    1
   13    11    14    1
   14    14    15    1
   15    14    16    1
   16    14    17    1
@<TRIPOS>SUBSTRUCTURE
       1 MOL1            1 RESIDUE      1      MOL     
@<SCITEGIC>MOL_PROPERTY
VConf Rank
SciTegic.value.IntegerValue
320

@<SCITEGIC>MOL_PROPERTY
Conf_Id
SciTegic.value.IntegerValue
36

@<SCITEGIC>MOL_PROPERTY
Delta U+W
SciTegic.value.DoubleValue
0.275

@<SCITEGIC>MOL_PROPERTY
U+W
SciTegic.value.DoubleValue
-15.590

@<SCITEGIC>MOL_PROPERTY
Grad RMS
SciTegic.value.DoubleValue
0.000000

@<SCITEGIC>MOL_PROPERTY
U
SciTegic.value.DoubleValue
45.174

@<SCITEGIC>MOL_PROPERTY
W
SciTegic.value.DoubleValue
-60.765

@<SCITEGIC>MOL_PROPERTY
W(PB)
SciTegic.value.DoubleValue
-62.518

@<SCITEGIC>MOL_PROPERTY
W(SA)
SciTegic.value.DoubleValue
1.754

@<SCITEGIC>MOL_PROPERTY
Valence
SciTegic.value.DoubleValue
1.161

@<SCITEGIC>MOL_PROPERTY
Coulomb
SciTegic.value.DoubleValue
43.789

@<SCITEGIC>MOL_PROPERTY
VdW
SciTegic.value.DoubleValue
0.224

@<SCITEGIC>MOL_PROPERTY
VdW6
SciTegic.value.DoubleValue
-2.897

@<SCITEGIC>MOL_PROPERTY
VdW12
SciTegic.value.DoubleValue
3.121

@<SCITEGIC>MOL_PROPERTY
Bond
SciTegic.value.DoubleValue
0.100

@<SCITEGIC>MOL_PROPERTY
Angle
SciTegic.value.DoubleValue
0.500

@<SCITEGIC>MOL_PROPERTY
Pdih
SciTegic.value.DoubleValue
0.561

@<SCITEGIC>MOL_PROPERTY
Idih
SciTegic.value.DoubleValue
0.000

@<SCITEGIC>MOL_PROPERTY
Tether
SciTegic.value.DoubleValue
0.000

@<TRIPOS>MOLECULE
guest-1_confgen4.mol2 : confsearch ligand conformer 321
          17          16           1
SMALL
USER_CHARGES
 
@<TRIPOS>ATOM
       1    N1      20.587114   17.571407   22.616087 N.4        1 MOL1        -0.5891
       2    H1      21.177217   17.743262   21.798108 H          1 MOL1         0.3726
       3    H2      19.991324   16.768065   22.394378 H          1 MOL1         0.3726
       4    H3      21.205972   17.280699   23.379845 H          1 MOL1         0.3726
       5    C1      19.769724   18.793972   22.986546 C.3        1 MOL1         0.0314
       6    H4      20.454208   19.595095   23.278068 H          1 MOL1         0.0999
       7    H5      19.171585   18.525591   23.861610 H          1 MOL1         0.0999
       8    C2      18.829621   19.291296   21.868294 C.3        1 MOL1        -0.1308
       9    H6      18.316894   18.439489   21.402176 H          1 MOL1         0.1025
      10    H7      18.042526   19.896717   22.337116 H          1 MOL1         0.1025
      11    C3      19.520396   20.161836   20.787695 C.3        1 MOL1        -0.1243
      12    H8      19.975615   21.044098   21.259300 H          1 MOL1         0.1025
      13    H9      18.747754   20.545984   20.106927 H          1 MOL1         0.1025
      14    C4      20.586202   19.416909   19.952217 C.3        1 MOL1        -0.2258
      15    H10     21.479800   19.193863   20.546699 H          1 MOL1         0.1036
      16    H11     20.908773   20.037757   19.106255 H          1 MOL1         0.1036
      17    H12     20.188473   18.478678   19.543941 H          1 MOL1         0.1036
@<TRIPOS>BOND
    1     1     2    1
    2     1     3    1
    3     1     4    1
    4     1     5    1
    5     5     6    1
    6     5     7    1
    7     5     8    1
    8     8     9    1
    9     8    10    1
   10     8    11    1
   11    11    12    1
   12    11    13    1
   13    11    14    1
   14    14    15    1
   15    14    16    1
   16    14    17    1
@<TRIPOS>SUBSTRUCTURE
       1 MOL1            1 RESIDUE      1      MOL     
@<SCITEGIC>MOL_PROPERTY
VConf Rank
SciTegic.value.IntegerValue
321

@<SCITEGIC>MOL_PROPERTY
Conf_Id
SciTegic.value.IntegerValue
19

@<SCITEGIC>MOL_PROPERTY
Delta U+W
SciTegic.value.DoubleValue
2.662

@<SCITEGIC>MOL_PROPERTY
U+W
SciTegic.value.DoubleValue
-13.203

@<SCITEGIC>MOL_PROPERTY
Grad RMS
SciTegic.value.DoubleValue
0.000000

@<SCITEGIC>MOL_PROPERTY
U
SciTegic.value.DoubleValue
47.423

@<SCITEGIC>MOL_PROPERTY
W
SciTegic.value.DoubleValue
-60.626

@<SCITEGIC>MOL_PROPERTY
W(PB)
SciTegic.value.DoubleValue
-62.328

@<SCITEGIC>MOL_PROPERTY
W(SA)
SciTegic.value.DoubleValue
1.702

@<SCITEGIC>MOL_PROPERTY
Valence
SciTegic.value.DoubleValue
2.414

@<SCITEGIC>MOL_PROPERTY
Coulomb
SciTegic.value.DoubleValue
44.831

@<SCITEGIC>MOL_PROPERTY
VdW
SciTegic.value.DoubleValue
0.178

@<SCITEGIC>MOL_PROPERTY
VdW6
SciTegic.value.DoubleValue
-3.743

@<SCITEGIC>MOL_PROPERTY
VdW12
SciTegic.value.DoubleValue
3.921

@<SCITEGIC>MOL_PROPERTY
Bond
SciTegic.value.DoubleValue
0.138

@<SCITEGIC>MOL_PROPERTY
Angle
SciTegic.value.DoubleValue
0.941

@<SCITEGIC>MOL_PROPERTY
Pdih
SciTegic.value.DoubleValue
1.335

@<SCITEGIC>MOL_PROPERTY
Idih
SciTegic.value.DoubleValue
0.000

@<SCITEGIC>MOL_PROPERTY
Tether
SciTegic.value.DoubleValue
0.000

@<TRIPOS>MOLECULE
guest-1_confgen4.mol2 : confsearch ligand conformer 322
          17          16           1
SMALL
USER_CHARGES
 
@<TRIPOS>ATOM
       1    N1      20.689884   17.475228   21.067917 N.4        1 MOL1        -0.5891
       2    H1      20.563775   16.478786   20.862920 H          1 MOL1         0.3726
       3    H2      21.699387   17.644515   21.109449 H          1 MOL1         0.3726
       4    H3      20.330119   17.996668   20.264478 H          1 MOL1         0.3726
       5    C1      19.997463   17.878336   22.355588 C.3        1 MOL1         0.0314
       6    H4      20.439310   17.280099   23.157099 H          1 MOL1         0.0999
       7    H5      18.939592   17.612868   22.279831 H          1 MOL1         0.0999
       8    C2      20.136609   19.374021   22.709389 C.3        1 MOL1        -0.1308
       9    H6      19.954172   19.481642   23.786877 H          1 MOL1         0.1025
      10    H7      21.170765   19.704323   22.544616 H          1 MOL1         0.1025
      11    C3      19.147686   20.305695   21.963253 C.3        1 MOL1        -0.1243
      12    H8      19.260540   21.322620   22.364648 H          1 MOL1         0.1025
      13    H9      18.114899   20.003631   22.187148 H          1 MOL1         0.1025
      14    C4      19.349008   20.355999   20.431646 C.3        1 MOL1        -0.2258
      15    H10     20.395887   20.562622   20.173764 H          1 MOL1         0.1036
      16    H11     18.734608   21.153083   19.993095 H          1 MOL1         0.1036
      17    H12     19.045508   19.416708   19.954887 H          1 MOL1         0.1036
@<TRIPOS>BOND
    1     1     2    1
    2     1     3    1
    3     1     4    1
    4     1     5    1
    5     5     6    1
    6     5     7    1
    7     5     8    1
    8     8     9    1
    9     8    10    1
   10     8    11    1
   11    11    12    1
   12    11    13    1
   13    11    14    1
   14    14    15    1
   15    14    16    1
   16    14    17    1
@<TRIPOS>SUBSTRUCTURE
       1 MOL1            1 RESIDUE      1      MOL     
@<SCITEGIC>MOL_PROPERTY
VConf Rank
SciTegic.value.IntegerValue
322

@<SCITEGIC>MOL_PROPERTY
Conf_Id
SciTegic.value.IntegerValue
44

@<SCITEGIC>MOL_PROPERTY
Delta U+W
SciTegic.value.DoubleValue
2.712

@<SCITEGIC>MOL_PROPERTY
U+W
SciTegic.value.DoubleValue
-13.153

@<SCITEGIC>MOL_PROPERTY
Grad RMS
SciTegic.value.DoubleValue
0.000000

@<SCITEGIC>MOL_PROPERTY
U
SciTegic.value.DoubleValue
47.423

@<SCITEGIC>MOL_PROPERTY
W
SciTegic.value.DoubleValue
-60.576

@<SCITEGIC>MOL_PROPERTY
W(PB)
SciTegic.value.DoubleValue
-62.262

@<SCITEGIC>MOL_PROPERTY
W(SA)
SciTegic.value.DoubleValue
1.687

@<SCITEGIC>MOL_PROPERTY
Valence
SciTegic.value.DoubleValue
2.414

@<SCITEGIC>MOL_PROPERTY
Coulomb
SciTegic.value.DoubleValue
44.831

@<SCITEGIC>MOL_PROPERTY
VdW
SciTegic.value.DoubleValue
0.178

@<SCITEGIC>MOL_PROPERTY
VdW6
SciTegic.value.DoubleValue
-3.743

@<SCITEGIC>MOL_PROPERTY
VdW12
SciTegic.value.DoubleValue
3.922

@<SCITEGIC>MOL_PROPERTY
Bond
SciTegic.value.DoubleValue
0.138

@<SCITEGIC>MOL_PROPERTY
Angle
SciTegic.value.DoubleValue
0.941

@<SCITEGIC>MOL_PROPERTY
Pdih
SciTegic.value.DoubleValue
1.335

@<SCITEGIC>MOL_PROPERTY
Idih
SciTegic.value.DoubleValue
0.000

@<SCITEGIC>MOL_PROPERTY
Tether
SciTegic.value.DoubleValue
0.000

@<TRIPOS>MOLECULE
guest-1_confgen4.mol2 : confsearch ligand conformer 323
          17          16           1
SMALL
USER_CHARGES
 
@<TRIPOS>ATOM
       1    N1      20.017269   18.871340   23.576034 N.4        1 MOL1        -0.5891
       2    H1      20.183433   19.855797   23.348699 H          1 MOL1         0.3726
       3    H2      20.912820   18.474393   23.875700 H          1 MOL1         0.3726
       4    H3      19.396059   18.853217   24.391165 H          1 MOL1         0.3726
       5    C1      19.428077   18.115086   22.400964 C.3        1 MOL1         0.0314
       6    H4      18.465354   18.569539   22.153090 H          1 MOL1         0.0999
       7    H5      19.243020   17.087453   22.725407 H          1 MOL1         0.0999
       8    C2      20.333714   18.101122   21.152146 C.3        1 MOL1        -0.1308
       9    H6      21.282156   17.606512   21.400274 H          1 MOL1         0.1025
      10    H7      19.858409   17.481074   20.380505 H          1 MOL1         0.1025
      11    C3      20.624081   19.506428   20.568744 C.3        1 MOL1        -0.1243
      12    H8      21.284052   19.397968   19.696633 H          1 MOL1         0.1025
      13    H9      21.181899   20.109968   21.297601 H          1 MOL1         0.1025
      14    C4      19.344407   20.260034   20.139429 C.3        1 MOL1        -0.2258
      15    H10     18.769134   19.676484   19.408951 H          1 MOL1         0.1036
      16    H11     19.601076   21.220087   19.673182 H          1 MOL1         0.1036
      17    H12     18.693684   20.472261   20.997024 H          1 MOL1         0.1036
@<TRIPOS>BOND
    1     1     2    1
    2     1     3    1
    3     1     4    1
    4     1     5    1
    5     5     6    1
    6     5     7    1
    7     5     8    1
    8     8     9    1
    9     8    10    1
   10     8    11    1
   11    11    12    1
   12    11    13    1
   13    11    14    1
   14    14    15    1
   15    14    16    1
   16    14    17    1
@<TRIPOS>SUBSTRUCTURE
       1 MOL1            1 RESIDUE      1      MOL     
@<SCITEGIC>MOL_PROPERTY
VConf Rank
SciTegic.value.IntegerValue
323

@<SCITEGIC>MOL_PROPERTY
Conf_Id
SciTegic.value.IntegerValue
1

@<SCITEGIC>MOL_PROPERTY
Delta U+W
SciTegic.value.DoubleValue
0.685

@<SCITEGIC>MOL_PROPERTY
U+W
SciTegic.value.DoubleValue
-15.179

@<SCITEGIC>MOL_PROPERTY
Grad RMS
SciTegic.value.DoubleValue
0.000000

@<SCITEGIC>MOL_PROPERTY
U
SciTegic.value.DoubleValue
45.697

@<SCITEGIC>MOL_PROPERTY
W
SciTegic.value.DoubleValue
-60.876

@<SCITEGIC>MOL_PROPERTY
W(PB)
SciTegic.value.DoubleValue
-62.586

@<SCITEGIC>MOL_PROPERTY
W(SA)
SciTegic.value.DoubleValue
1.710

@<SCITEGIC>MOL_PROPERTY
Valence
SciTegic.value.DoubleValue
1.263

@<SCITEGIC>MOL_PROPERTY
Coulomb
SciTegic.value.DoubleValue
44.179

@<SCITEGIC>MOL_PROPERTY
VdW
SciTegic.value.DoubleValue
0.255

@<SCITEGIC>MOL_PROPERTY
VdW6
SciTegic.value.DoubleValue
-3.552

@<SCITEGIC>MOL_PROPERTY
VdW12
SciTegic.value.DoubleValue
3.807

@<SCITEGIC>MOL_PROPERTY
Bond
SciTegic.value.DoubleValue
0.125

@<SCITEGIC>MOL_PROPERTY
Angle
SciTegic.value.DoubleValue
0.616

@<SCITEGIC>MOL_PROPERTY
Pdih
SciTegic.value.DoubleValue
0.521

@<SCITEGIC>MOL_PROPERTY
Idih
SciTegic.value.DoubleValue
0.000

@<SCITEGIC>MOL_PROPERTY
Tether
SciTegic.value.DoubleValue
0.000

@<TRIPOS>MOLECULE
guest-1_confgen4.mol2 : confsearch ligand conformer 324
          17          16           1
SMALL
USER_CHARGES
 
@<TRIPOS>ATOM
       1    N1      20.137821   18.938322   23.572097 N.4        1 MOL1        -0.5891
       2    H1      20.337313   19.860082   23.972018 H          1 MOL1         0.3726
       3    H2      21.008726   18.592515   23.159314 H          1 MOL1         0.3726
       4    H3      19.910461   18.317080   24.355062 H          1 MOL1         0.3726
       5    C1      19.016436   18.994518   22.552687 C.3        1 MOL1         0.0314
       6    H4      18.114175   19.334091   23.068586 H          1 MOL1         0.0999
       7    H5      18.836211   17.979257   22.189963 H          1 MOL1         0.0999
       8    C2      19.305288   19.929455   21.360052 C.3        1 MOL1        -0.1308
       9    H6      18.419019   19.956509   20.712286 H          1 MOL1         0.1025
      10    H7      19.444424   20.953729   21.730525 H          1 MOL1         0.1025
      11    C3      20.538350   19.515121   20.518955 C.3        1 MOL1        -0.1243
      12    H8      21.449011   19.571924   21.130612 H          1 MOL1         0.1025
      13    H9      20.673071   20.242841   19.706441 H          1 MOL1         0.1025
      14    C4      20.407935   18.100430   19.909498 C.3        1 MOL1        -0.2258
      15    H10     21.271591   17.875397   19.270416 H          1 MOL1         0.1036
      16    H11     19.504200   18.018693   19.291719 H          1 MOL1         0.1036
      17    H12     20.361955   17.328075   20.687510 H          1 MOL1         0.1036
@<TRIPOS>BOND
    1     1     2    1
    2     1     3    1
    3     1     4    1
    4     1     5    1
    5     5     6    1
    6     5     7    1
    7     5     8    1
    8     8     9    1
    9     8    10    1
   10     8    11    1
   11    11    12    1
   12    11    13    1
   13    11    14    1
   14    14    15    1
   15    14    16    1
   16    14    17    1
@<TRIPOS>SUBSTRUCTURE
       1 MOL1            1 RESIDUE      1      MOL     
@<SCITEGIC>MOL_PROPERTY
VConf Rank
SciTegic.value.IntegerValue
324

@<SCITEGIC>MOL_PROPERTY
Conf_Id
SciTegic.value.IntegerValue
43

@<SCITEGIC>MOL_PROPERTY
Delta U+W
SciTegic.value.DoubleValue
0.642

@<SCITEGIC>MOL_PROPERTY
U+W
SciTegic.value.DoubleValue
-15.222

@<SCITEGIC>MOL_PROPERTY
Grad RMS
SciTegic.value.DoubleValue
0.000000

@<SCITEGIC>MOL_PROPERTY
U
SciTegic.value.DoubleValue
45.697

@<SCITEGIC>MOL_PROPERTY
W
SciTegic.value.DoubleValue
-60.919

@<SCITEGIC>MOL_PROPERTY
W(PB)
SciTegic.value.DoubleValue
-62.631

@<SCITEGIC>MOL_PROPERTY
W(SA)
SciTegic.value.DoubleValue
1.712

@<SCITEGIC>MOL_PROPERTY
Valence
SciTegic.value.DoubleValue
1.262

@<SCITEGIC>MOL_PROPERTY
Coulomb
SciTegic.value.DoubleValue
44.179

@<SCITEGIC>MOL_PROPERTY
VdW
SciTegic.value.DoubleValue
0.255

@<SCITEGIC>MOL_PROPERTY
VdW6
SciTegic.value.DoubleValue
-3.552

@<SCITEGIC>MOL_PROPERTY
VdW12
SciTegic.value.DoubleValue
3.807

@<SCITEGIC>MOL_PROPERTY
Bond
SciTegic.value.DoubleValue
0.125

@<SCITEGIC>MOL_PROPERTY
Angle
SciTegic.value.DoubleValue
0.616

@<SCITEGIC>MOL_PROPERTY
Pdih
SciTegic.value.DoubleValue
0.521

@<SCITEGIC>MOL_PROPERTY
Idih
SciTegic.value.DoubleValue
0.000

@<SCITEGIC>MOL_PROPERTY
Tether
SciTegic.value.DoubleValue
0.000

@<TRIPOS>MOLECULE
guest-1_confgen4.mol2 : confsearch ligand conformer 325
          17          16           1
SMALL
USER_CHARGES
 
@<TRIPOS>ATOM
       1    N1      20.778136   21.426142   22.167190 N.4        1 MOL1        -0.5891
       2    H1      20.334425   21.911773   21.381710 H          1 MOL1         0.3726
       3    H2      21.762204   21.287679   21.917922 H          1 MOL1         0.3726
       4    H3      20.762165   22.072864   22.962428 H          1 MOL1         0.3726
       5    C1      20.084709   20.117788   22.490802 C.3        1 MOL1         0.0314
       6    H4      19.053681   20.343743   22.776194 H          1 MOL1         0.0999
       7    H5      20.588980   19.672657   23.352830 H          1 MOL1         0.0999
       8    C2      20.090193   19.121669   21.316928 C.3        1 MOL1        -0.1308
       9    H6      19.596739   19.577874   20.448383 H          1 MOL1         0.1025
      10    H7      21.126745   18.908983   21.023134 H          1 MOL1         0.1025
      11    C3      19.374755   17.804136   21.688107 C.3        1 MOL1        -0.1243
      12    H8      18.338083   18.016757   21.985478 H          1 MOL1         0.1025
      13    H9      19.866256   17.348643   22.559473 H          1 MOL1         0.1025
      14    C4      19.376239   16.799934   20.515276 C.3        1 MOL1        -0.2258
      15    H10     18.863750   15.871530   20.798947 H          1 MOL1         0.1036
      16    H11     20.400768   16.541026   20.217762 H          1 MOL1         0.1036
      17    H12     18.860581   17.214448   19.639216 H          1 MOL1         0.1036
@<TRIPOS>BOND
    1     1     2    1
    2     1     3    1
    3     1     4    1
    4     1     5    1
    5     5     6    1
    6     5     7    1
    7     5     8    1
    8     8     9    1
    9     8    10    1
   10     8    11    1
   11    11    12    1
   12    11    13    1
   13    11    14    1
   14    14    15    1
   15    14    16    1
   16    14    17    1
@<TRIPOS>SUBSTRUCTURE
       1 MOL1            1 RESIDUE      1      MOL     
@<SCITEGIC>MOL_PROPERTY
VConf Rank
SciTegic.value.IntegerValue
325

@<SCITEGIC>MOL_PROPERTY
Conf_Id
SciTegic.value.IntegerValue
7

@<SCITEGIC>MOL_PROPERTY
Delta U+W
SciTegic.value.DoubleValue
0.000

@<SCITEGIC>MOL_PROPERTY
U+W
SciTegic.value.DoubleValue
-15.865

@<SCITEGIC>MOL_PROPERTY
Grad RMS
SciTegic.value.DoubleValue
0.000000

@<SCITEGIC>MOL_PROPERTY
U
SciTegic.value.DoubleValue
44.664

@<SCITEGIC>MOL_PROPERTY
W
SciTegic.value.DoubleValue
-60.529

@<SCITEGIC>MOL_PROPERTY
W(PB)
SciTegic.value.DoubleValue
-62.309

@<SCITEGIC>MOL_PROPERTY
W(SA)
SciTegic.value.DoubleValue
1.780

@<SCITEGIC>MOL_PROPERTY
Valence
SciTegic.value.DoubleValue
0.872

@<SCITEGIC>MOL_PROPERTY
Coulomb
SciTegic.value.DoubleValue
43.648

@<SCITEGIC>MOL_PROPERTY
VdW
SciTegic.value.DoubleValue
0.144

@<SCITEGIC>MOL_PROPERTY
VdW6
SciTegic.value.DoubleValue
-2.370

@<SCITEGIC>MOL_PROPERTY
VdW12
SciTegic.value.DoubleValue
2.515

@<SCITEGIC>MOL_PROPERTY
Bond
SciTegic.value.DoubleValue
0.080

@<SCITEGIC>MOL_PROPERTY
Angle
SciTegic.value.DoubleValue
0.376

@<SCITEGIC>MOL_PROPERTY
Pdih
SciTegic.value.DoubleValue
0.416

@<SCITEGIC>MOL_PROPERTY
Idih
SciTegic.value.DoubleValue
0.000

@<SCITEGIC>MOL_PROPERTY
Tether
SciTegic.value.DoubleValue
0.000

@<TRIPOS>MOLECULE
guest-1_confgen4.mol2 : confsearch ligand conformer 326
          17          16           1
SMALL
USER_CHARGES
 
@<TRIPOS>ATOM
       1    N1      17.525628   18.865252   21.638178 N.4        1 MOL1        -0.5891
       2    H1      17.196479   18.782104   20.671537 H          1 MOL1         0.3726
       3    H2      17.296428   19.812746   21.953409 H          1 MOL1         0.3726
       4    H3      16.960008   18.220963   22.200148 H          1 MOL1         0.3726
       5    C1      19.006991   18.568921   21.761089 C.3        1 MOL1         0.0314
       6    H4      19.173287   17.537713   21.438034 H          1 MOL1         0.0999
       7    H5      19.278279   18.645425   22.817208 H          1 MOL1         0.0999
       8    C2      19.887238   19.520393   20.928127 C.3        1 MOL1        -0.1308
       9    H6      19.579925   19.465653   19.875303 H          1 MOL1         0.1025
      10    H7      19.718956   20.556258   21.251471 H          1 MOL1         0.1025
      11    C3      21.393126   19.183158   21.030987 C.3        1 MOL1        -0.1243
      12    H8      21.953820   19.843619   20.354677 H          1 MOL1         0.1025
      13    H9      21.568036   18.157611   20.676246 H          1 MOL1         0.1025
      14    C4      21.950662   19.338849   22.464470 C.3        1 MOL1        -0.2258
      15    H10     21.783035   20.354672   22.845428 H          1 MOL1         0.1036
      16    H11     23.031908   19.149938   22.479547 H          1 MOL1         0.1036
      17    H12     21.481575   18.630499   23.158940 H          1 MOL1         0.1036
@<TRIPOS>BOND
    1     1     2    1
    2     1     3    1
    3     1     4    1
    4     1     5    1
    5     5     6    1
    6     5     7    1
    7     5     8    1
    8     8     9    1
    9     8    10    1
   10     8    11    1
   11    11    12    1
   12    11    13    1
   13    11    14    1
   14    14    15    1
   15    14    16    1
   16    14    17    1
@<TRIPOS>SUBSTRUCTURE
       1 MOL1            1 RESIDUE      1      MOL     
@<SCITEGIC>MOL_PROPERTY
VConf Rank
SciTegic.value.IntegerValue
326

@<SCITEGIC>MOL_PROPERTY
Conf_Id
SciTegic.value.IntegerValue
36

@<SCITEGIC>MOL_PROPERTY
Delta U+W
SciTegic.value.DoubleValue
0.275

@<SCITEGIC>MOL_PROPERTY
U+W
SciTegic.value.DoubleValue
-15.590

@<SCITEGIC>MOL_PROPERTY
Grad RMS
SciTegic.value.DoubleValue
0.000000

@<SCITEGIC>MOL_PROPERTY
U
SciTegic.value.DoubleValue
45.174

@<SCITEGIC>MOL_PROPERTY
W
SciTegic.value.DoubleValue
-60.765

@<SCITEGIC>MOL_PROPERTY
W(PB)
SciTegic.value.DoubleValue
-62.518

@<SCITEGIC>MOL_PROPERTY
W(SA)
SciTegic.value.DoubleValue
1.754

@<SCITEGIC>MOL_PROPERTY
Valence
SciTegic.value.DoubleValue
1.161

@<SCITEGIC>MOL_PROPERTY
Coulomb
SciTegic.value.DoubleValue
43.789

@<SCITEGIC>MOL_PROPERTY
VdW
SciTegic.value.DoubleValue
0.224

@<SCITEGIC>MOL_PROPERTY
VdW6
SciTegic.value.DoubleValue
-2.897

@<SCITEGIC>MOL_PROPERTY
VdW12
SciTegic.value.DoubleValue
3.121

@<SCITEGIC>MOL_PROPERTY
Bond
SciTegic.value.DoubleValue
0.100

@<SCITEGIC>MOL_PROPERTY
Angle
SciTegic.value.DoubleValue
0.500

@<SCITEGIC>MOL_PROPERTY
Pdih
SciTegic.value.DoubleValue
0.561

@<SCITEGIC>MOL_PROPERTY
Idih
SciTegic.value.DoubleValue
0.000

@<SCITEGIC>MOL_PROPERTY
Tether
SciTegic.value.DoubleValue
0.000

@<TRIPOS>MOLECULE
guest-1_confgen4.mol2 : confsearch ligand conformer 327
          17          16           1
SMALL
USER_CHARGES
 
@<TRIPOS>ATOM
       1    N1      18.229300   18.615207   20.972609 N.4        1 MOL1        -0.5891
       2    H1      18.214699   19.369245   21.664027 H          1 MOL1         0.3726
       3    H2      17.931035   17.760630   21.452415 H          1 MOL1         0.3726
       4    H3      17.510040   18.830736   20.274730 H          1 MOL1         0.3726
       5    C1      19.599099   18.457997   20.340971 C.3        1 MOL1         0.0314
       6    H4      19.834450   19.371430   19.788203 H          1 MOL1         0.0999
       7    H5      19.527503   17.637155   19.622202 H          1 MOL1         0.0999
       8    C2      20.729313   18.149494   21.345488 C.3        1 MOL1        -0.1308
       9    H6      20.394532   17.392067   22.066567 H          1 MOL1         0.1025
      10    H7      21.556415   17.689941   20.788208 H          1 MOL1         0.1025
      11    C3      21.286465   19.391193   22.087425 C.3        1 MOL1        -0.1243
      12    H8      21.675972   20.114232   21.357001 H          1 MOL1         0.1025
      13    H9      22.148582   19.075318   22.691549 H          1 MOL1         0.1025
      14    C4      20.267234   20.092915   23.013512 C.3        1 MOL1        -0.2258
      15    H10     19.489688   20.608892   22.438303 H          1 MOL1         0.1036
      16    H11     20.770280   20.851180   23.627626 H          1 MOL1         0.1036
      17    H12     19.788592   19.377085   23.694425 H          1 MOL1         0.1036
@<TRIPOS>BOND
    1     1     2    1
    2     1     3    1
    3     1     4    1
    4     1     5    1
    5     5     6    1
    6     5     7    1
    7     5     8    1
    8     8     9    1
    9     8    10    1
   10     8    11    1
   11    11    12    1
   12    11    13    1
   13    11    14    1
   14    14    15    1
   15    14    16    1
   16    14    17    1
@<TRIPOS>SUBSTRUCTURE
       1 MOL1            1 RESIDUE      1      MOL     
@<SCITEGIC>MOL_PROPERTY
VConf Rank
SciTegic.value.IntegerValue
327

@<SCITEGIC>MOL_PROPERTY
Conf_Id
SciTegic.value.IntegerValue
19

@<SCITEGIC>MOL_PROPERTY
Delta U+W
SciTegic.value.DoubleValue
2.662

@<SCITEGIC>MOL_PROPERTY
U+W
SciTegic.value.DoubleValue
-13.203

@<SCITEGIC>MOL_PROPERTY
Grad RMS
SciTegic.value.DoubleValue
0.000000

@<SCITEGIC>MOL_PROPERTY
U
SciTegic.value.DoubleValue
47.423

@<SCITEGIC>MOL_PROPERTY
W
SciTegic.value.DoubleValue
-60.626

@<SCITEGIC>MOL_PROPERTY
W(PB)
SciTegic.value.DoubleValue
-62.328

@<SCITEGIC>MOL_PROPERTY
W(SA)
SciTegic.value.DoubleValue
1.702

@<SCITEGIC>MOL_PROPERTY
Valence
SciTegic.value.DoubleValue
2.414

@<SCITEGIC>MOL_PROPERTY
Coulomb
SciTegic.value.DoubleValue
44.831

@<SCITEGIC>MOL_PROPERTY
VdW
SciTegic.value.DoubleValue
0.178

@<SCITEGIC>MOL_PROPERTY
VdW6
SciTegic.value.DoubleValue
-3.743

@<SCITEGIC>MOL_PROPERTY
VdW12
SciTegic.value.DoubleValue
3.921

@<SCITEGIC>MOL_PROPERTY
Bond
SciTegic.value.DoubleValue
0.138

@<SCITEGIC>MOL_PROPERTY
Angle
SciTegic.value.DoubleValue
0.941

@<SCITEGIC>MOL_PROPERTY
Pdih
SciTegic.value.DoubleValue
1.335

@<SCITEGIC>MOL_PROPERTY
Idih
SciTegic.value.DoubleValue
0.000

@<SCITEGIC>MOL_PROPERTY
Tether
SciTegic.value.DoubleValue
0.000

@<TRIPOS>MOLECULE
guest-1_confgen4.mol2 : confsearch ligand conformer 328
          17          16           1
SMALL
USER_CHARGES
 
@<TRIPOS>ATOM
       1    N1      18.716717   17.804122   20.879706 N.4        1 MOL1        -0.5891
       2    H1      18.579664   16.826429   20.603739 H          1 MOL1         0.3726
       3    H2      17.930176   18.334848   20.493490 H          1 MOL1         0.3726
       4    H3      18.635436   17.844428   21.898830 H          1 MOL1         0.3726
       5    C1      20.050389   18.344016   20.400257 C.3        1 MOL1         0.0314
       6    H4      20.053193   18.266821   19.309583 H          1 MOL1         0.0999
       7    H5      20.845519   17.700651   20.786457 H          1 MOL1         0.0999
       8    C2      20.322884   19.809124   20.801275 C.3        1 MOL1        -0.1308
       9    H6      21.082628   20.208096   20.116106 H          1 MOL1         0.1025
      10    H7      19.422584   20.416534   20.639278 H          1 MOL1         0.1025
      11    C3      20.843809   19.992834   22.249581 C.3        1 MOL1        -0.1243
      12    H8      21.102989   21.051330   22.392420 H          1 MOL1         0.1025
      13    H9      21.779286   19.430776   22.379946 H          1 MOL1         0.1025
      14    C4      19.837641   19.579992   23.347792 C.3        1 MOL1        -0.2258
      15    H10     18.859555   20.053035   23.190536 H          1 MOL1         0.1036
      16    H11     20.203046   19.891261   24.335085 H          1 MOL1         0.1036
      17    H12     19.703696   18.492549   23.382523 H          1 MOL1         0.1036
@<TRIPOS>BOND
    1     1     2    1
    2     1     3    1
    3     1     4    1
    4     1     5    1
    5     5     6    1
    6     5     7    1
    7     5     8    1
    8     8     9    1
    9     8    10    1
   10     8    11    1
   11    11    12    1
   12    11    13    1
   13    11    14    1
   14    14    15    1
   15    14    16    1
   16    14    17    1
@<TRIPOS>SUBSTRUCTURE
       1 MOL1            1 RESIDUE      1      MOL     
@<SCITEGIC>MOL_PROPERTY
VConf Rank
SciTegic.value.IntegerValue
328

@<SCITEGIC>MOL_PROPERTY
Conf_Id
SciTegic.value.IntegerValue
44

@<SCITEGIC>MOL_PROPERTY
Delta U+W
SciTegic.value.DoubleValue
2.712

@<SCITEGIC>MOL_PROPERTY
U+W
SciTegic.value.DoubleValue
-13.153

@<SCITEGIC>MOL_PROPERTY
Grad RMS
SciTegic.value.DoubleValue
0.000000

@<SCITEGIC>MOL_PROPERTY
U
SciTegic.value.DoubleValue
47.423

@<SCITEGIC>MOL_PROPERTY
W
SciTegic.value.DoubleValue
-60.576

@<SCITEGIC>MOL_PROPERTY
W(PB)
SciTegic.value.DoubleValue
-62.262

@<SCITEGIC>MOL_PROPERTY
W(SA)
SciTegic.value.DoubleValue
1.687

@<SCITEGIC>MOL_PROPERTY
Valence
SciTegic.value.DoubleValue
2.414

@<SCITEGIC>MOL_PROPERTY
Coulomb
SciTegic.value.DoubleValue
44.831

@<SCITEGIC>MOL_PROPERTY
VdW
SciTegic.value.DoubleValue
0.178

@<SCITEGIC>MOL_PROPERTY
VdW6
SciTegic.value.DoubleValue
-3.743

@<SCITEGIC>MOL_PROPERTY
VdW12
SciTegic.value.DoubleValue
3.922

@<SCITEGIC>MOL_PROPERTY
Bond
SciTegic.value.DoubleValue
0.138

@<SCITEGIC>MOL_PROPERTY
Angle
SciTegic.value.DoubleValue
0.941

@<SCITEGIC>MOL_PROPERTY
Pdih
SciTegic.value.DoubleValue
1.335

@<SCITEGIC>MOL_PROPERTY
Idih
SciTegic.value.DoubleValue
0.000

@<SCITEGIC>MOL_PROPERTY
Tether
SciTegic.value.DoubleValue
0.000

@<TRIPOS>MOLECULE
guest-1_confgen4.mol2 : confsearch ligand conformer 329
          17          16           1
SMALL
USER_CHARGES
 
@<TRIPOS>ATOM
       1    N1      18.954220   19.152577   19.866365 N.4        1 MOL1        -0.5891
       2    H1      19.752919   18.527477   19.725745 H          1 MOL1         0.3726
       3    H2      19.164044   20.027084   19.375865 H          1 MOL1         0.3726
       4    H3      18.153691   18.727536   19.387656 H          1 MOL1         0.3726
       5    C1      18.673552   19.383014   21.338772 C.3        1 MOL1         0.0314
       6    H4      18.429483   18.419095   21.792749 H          1 MOL1         0.0999
       7    H5      17.791245   20.024533   21.413125 H          1 MOL1         0.0999
       8    C2      19.845134   20.035493   22.101390 C.3        1 MOL1        -0.1308
       9    H6      20.055957   21.020348   21.663938 H          1 MOL1         0.1025
      10    H7      19.529890   20.222044   23.136583 H          1 MOL1         0.1025
      11    C3      21.141822   19.188085   22.108794 C.3        1 MOL1        -0.1243
      12    H8      21.919537   19.736252   22.658864 H          1 MOL1         0.1025
      13    H9      21.521392   19.069712   21.084798 H          1 MOL1         0.1025
      14    C4      20.952923   17.797880   22.757982 C.3        1 MOL1        -0.2258
      15    H10     20.574536   17.889799   23.784355 H          1 MOL1         0.1036
      16    H11     21.908751   17.259793   22.800679 H          1 MOL1         0.1036
      17    H12     20.249545   17.178042   22.187887 H          1 MOL1         0.1036
@<TRIPOS>BOND
    1     1     2    1
    2     1     3    1
    3     1     4    1
    4     1     5    1
    5     5     6    1
    6     5     7    1
    7     5     8    1
    8     8     9    1
    9     8    10    1
   10     8    11    1
   11    11    12    1
   12    11    13    1
   13    11    14    1
   14    14    15    1
   15    14    16    1
   16    14    17    1
@<TRIPOS>SUBSTRUCTURE
       1 MOL1            1 RESIDUE      1      MOL     
@<SCITEGIC>MOL_PROPERTY
VConf Rank
SciTegic.value.IntegerValue
329

@<SCITEGIC>MOL_PROPERTY
Conf_Id
SciTegic.value.IntegerValue
1

@<SCITEGIC>MOL_PROPERTY
Delta U+W
SciTegic.value.DoubleValue
0.685

@<SCITEGIC>MOL_PROPERTY
U+W
SciTegic.value.DoubleValue
-15.179

@<SCITEGIC>MOL_PROPERTY
Grad RMS
SciTegic.value.DoubleValue
0.000000

@<SCITEGIC>MOL_PROPERTY
U
SciTegic.value.DoubleValue
45.697

@<SCITEGIC>MOL_PROPERTY
W
SciTegic.value.DoubleValue
-60.876

@<SCITEGIC>MOL_PROPERTY
W(PB)
SciTegic.value.DoubleValue
-62.586

@<SCITEGIC>MOL_PROPERTY
W(SA)
SciTegic.value.DoubleValue
1.710

@<SCITEGIC>MOL_PROPERTY
Valence
SciTegic.value.DoubleValue
1.263

@<SCITEGIC>MOL_PROPERTY
Coulomb
SciTegic.value.DoubleValue
44.179

@<SCITEGIC>MOL_PROPERTY
VdW
SciTegic.value.DoubleValue
0.255

@<SCITEGIC>MOL_PROPERTY
VdW6
SciTegic.value.DoubleValue
-3.552

@<SCITEGIC>MOL_PROPERTY
VdW12
SciTegic.value.DoubleValue
3.807

@<SCITEGIC>MOL_PROPERTY
Bond
SciTegic.value.DoubleValue
0.125

@<SCITEGIC>MOL_PROPERTY
Angle
SciTegic.value.DoubleValue
0.616

@<SCITEGIC>MOL_PROPERTY
Pdih
SciTegic.value.DoubleValue
0.521

@<SCITEGIC>MOL_PROPERTY
Idih
SciTegic.value.DoubleValue
0.000

@<SCITEGIC>MOL_PROPERTY
Tether
SciTegic.value.DoubleValue
0.000

@<TRIPOS>MOLECULE
guest-1_confgen4.mol2 : confsearch ligand conformer 330
          17          16           1
SMALL
USER_CHARGES
 
@<TRIPOS>ATOM
       1    N1      21.551564   19.107442   20.460950 N.4        1 MOL1        -0.5891
       2    H1      22.132765   19.919226   20.690274 H          1 MOL1         0.3726
       3    H2      20.769835   19.445674   19.892665 H          1 MOL1         0.3726
       4    H3      22.115827   18.497436   19.860811 H          1 MOL1         0.3726
       5    C1      21.070763   18.386174   21.705322 C.3        1 MOL1         0.0314
       6    H4      21.951958   18.022083   22.240552 H          1 MOL1         0.0999
       7    H5      20.484903   17.518917   21.389986 H          1 MOL1         0.0999
       8    C2      20.227803   19.267960   22.649670 C.3        1 MOL1        -0.1308
       9    H6      19.980664   18.685224   23.546969 H          1 MOL1         0.1025
      10    H7      20.837878   20.113902   22.993093 H          1 MOL1         0.1025
      11    C3      18.920413   19.801987   22.013192 C.3        1 MOL1        -0.1243
      12    H8      19.154638   20.462800   21.167546 H          1 MOL1         0.1025
      13    H9      18.397602   20.427116   22.750611 H          1 MOL1         0.1025
      14    C4      17.970277   18.675554   21.546086 C.3        1 MOL1        -0.2258
      15    H10     17.031991   19.097385   21.163141 H          1 MOL1         0.1036
      16    H11     17.720107   18.001159   22.375346 H          1 MOL1         0.1036
      17    H12     18.416999   18.077998   20.741527 H          1 MOL1         0.1036
@<TRIPOS>BOND
    1     1     2    1
    2     1     3    1
    3     1     4    1
    4     1     5    1
    5     5     6    1
    6     5     7    1
    7     5     8    1
    8     8     9    1
    9     8    10    1
   10     8    11    1
   11    11    12    1
   12    11    13    1
   13    11    14    1
   14    14    15    1
   15    14    16    1
   16    14    17    1
@<TRIPOS>SUBSTRUCTURE
       1 MOL1            1 RESIDUE      1      MOL     
@<SCITEGIC>MOL_PROPERTY
VConf Rank
SciTegic.value.IntegerValue
330

@<SCITEGIC>MOL_PROPERTY
Conf_Id
SciTegic.value.IntegerValue
43

@<SCITEGIC>MOL_PROPERTY
Delta U+W
SciTegic.value.DoubleValue
0.642

@<SCITEGIC>MOL_PROPERTY
U+W
SciTegic.value.DoubleValue
-15.222

@<SCITEGIC>MOL_PROPERTY
Grad RMS
SciTegic.value.DoubleValue
0.000000

@<SCITEGIC>MOL_PROPERTY
U
SciTegic.value.DoubleValue
45.697

@<SCITEGIC>MOL_PROPERTY
W
SciTegic.value.DoubleValue
-60.919

@<SCITEGIC>MOL_PROPERTY
W(PB)
SciTegic.value.DoubleValue
-62.631

@<SCITEGIC>MOL_PROPERTY
W(SA)
SciTegic.value.DoubleValue
1.712

@<SCITEGIC>MOL_PROPERTY
Valence
SciTegic.value.DoubleValue
1.262

@<SCITEGIC>MOL_PROPERTY
Coulomb
SciTegic.value.DoubleValue
44.179

@<SCITEGIC>MOL_PROPERTY
VdW
SciTegic.value.DoubleValue
0.255

@<SCITEGIC>MOL_PROPERTY
VdW6
SciTegic.value.DoubleValue
-3.552

@<SCITEGIC>MOL_PROPERTY
VdW12
SciTegic.value.DoubleValue
3.807

@<SCITEGIC>MOL_PROPERTY
Bond
SciTegic.value.DoubleValue
0.125

@<SCITEGIC>MOL_PROPERTY
Angle
SciTegic.value.DoubleValue
0.616

@<SCITEGIC>MOL_PROPERTY
Pdih
SciTegic.value.DoubleValue
0.521

@<SCITEGIC>MOL_PROPERTY
Idih
SciTegic.value.DoubleValue
0.000

@<SCITEGIC>MOL_PROPERTY
Tether
SciTegic.value.DoubleValue
0.000

@<TRIPOS>MOLECULE
guest-1_confgen4.mol2 : confsearch ligand conformer 331
          17          16           1
SMALL
USER_CHARGES
 
@<TRIPOS>ATOM
       1    N1      20.001336   19.947416   19.194089 N.4        1 MOL1        -0.5891
       2    H1      19.538213   20.843452   19.373898 H          1 MOL1         0.3726
       3    H2      19.293796   19.315564   18.806986 H          1 MOL1         0.3726
       4    H3      20.688636   20.112925   18.451706 H          1 MOL1         0.3726
       5    C1      20.646399   19.380768   20.443153 C.3        1 MOL1         0.0314
       6    H4      21.407593   20.089224   20.781083 H          1 MOL1         0.0999
       7    H5      21.144808   18.446265   20.171460 H          1 MOL1         0.0999
       8    C2      19.641479   19.119699   21.579921 C.3        1 MOL1        -0.1308
       9    H6      19.131859   20.057202   21.839472 H          1 MOL1         0.1025
      10    H7      18.870071   18.419790   21.232000 H          1 MOL1         0.1025
      11    C3      20.338847   18.543728   22.831901 C.3        1 MOL1        -0.1243
      12    H8      21.113409   19.242384   23.178685 H          1 MOL1         0.1025
      13    H9      20.851877   17.606941   22.571983 H          1 MOL1         0.1025
      14    C4      19.336943   18.279320   23.976554 C.3        1 MOL1        -0.2258
      15    H10     19.851668   17.870837   24.855899 H          1 MOL1         0.1036
      16    H11     18.568960   17.556889   23.670774 H          1 MOL1         0.1036
      17    H12     18.832514   19.205240   24.282219 H          1 MOL1         0.1036
@<TRIPOS>BOND
    1     1     2    1
    2     1     3    1
    3     1     4    1
    4     1     5    1
    5     5     6    1
    6     5     7    1
    7     5     8    1
    8     8     9    1
    9     8    10    1
   10     8    11    1
   11    11    12    1
   12    11    13    1
   13    11    14    1
   14    14    15    1
   15    14    16    1
   16    14    17    1
@<TRIPOS>SUBSTRUCTURE
       1 MOL1            1 RESIDUE      1      MOL     
@<SCITEGIC>MOL_PROPERTY
VConf Rank
SciTegic.value.IntegerValue
331

@<SCITEGIC>MOL_PROPERTY
Conf_Id
SciTegic.value.IntegerValue
7

@<SCITEGIC>MOL_PROPERTY
Delta U+W
SciTegic.value.DoubleValue
0.000

@<SCITEGIC>MOL_PROPERTY
U+W
SciTegic.value.DoubleValue
-15.865

@<SCITEGIC>MOL_PROPERTY
Grad RMS
SciTegic.value.DoubleValue
0.000000

@<SCITEGIC>MOL_PROPERTY
U
SciTegic.value.DoubleValue
44.664

@<SCITEGIC>MOL_PROPERTY
W
SciTegic.value.DoubleValue
-60.529

@<SCITEGIC>MOL_PROPERTY
W(PB)
SciTegic.value.DoubleValue
-62.309

@<SCITEGIC>MOL_PROPERTY
W(SA)
SciTegic.value.DoubleValue
1.780

@<SCITEGIC>MOL_PROPERTY
Valence
SciTegic.value.DoubleValue
0.872

@<SCITEGIC>MOL_PROPERTY
Coulomb
SciTegic.value.DoubleValue
43.648

@<SCITEGIC>MOL_PROPERTY
VdW
SciTegic.value.DoubleValue
0.144

@<SCITEGIC>MOL_PROPERTY
VdW6
SciTegic.value.DoubleValue
-2.370

@<SCITEGIC>MOL_PROPERTY
VdW12
SciTegic.value.DoubleValue
2.515

@<SCITEGIC>MOL_PROPERTY
Bond
SciTegic.value.DoubleValue
0.080

@<SCITEGIC>MOL_PROPERTY
Angle
SciTegic.value.DoubleValue
0.376

@<SCITEGIC>MOL_PROPERTY
Pdih
SciTegic.value.DoubleValue
0.416

@<SCITEGIC>MOL_PROPERTY
Idih
SciTegic.value.DoubleValue
0.000

@<SCITEGIC>MOL_PROPERTY
Tether
SciTegic.value.DoubleValue
0.000

@<TRIPOS>MOLECULE
guest-1_confgen4.mol2 : confsearch ligand conformer 332
          17          16           1
SMALL
USER_CHARGES
 
@<TRIPOS>ATOM
       1    N1      20.483383   17.121116   20.347789 N.4        1 MOL1        -0.5891
       2    H1      20.990424   17.405643   19.504224 H          1 MOL1         0.3726
       3    H2      19.533410   16.870372   20.057399 H          1 MOL1         0.3726
       4    H3      20.927370   16.260547   20.684151 H          1 MOL1         0.3726
       5    C1      20.485708   18.207111   21.405128 C.3        1 MOL1         0.0314
       6    H4      21.523877   18.401402   21.687728 H          1 MOL1         0.0999
       7    H5      19.957693   17.823309   22.281903 H          1 MOL1         0.0999
       8    C2      19.824651   19.515973   20.932009 C.3        1 MOL1        -0.1308
       9    H6      20.336925   19.871516   20.028105 H          1 MOL1         0.1025
      10    H7      18.782437   19.320487   20.646591 H          1 MOL1         0.1025
      11    C3      19.868393   20.628314   22.005690 C.3        1 MOL1        -0.1243
      12    H8      19.455823   21.553141   21.578534 H          1 MOL1         0.1025
      13    H9      20.912736   20.848599   22.268377 H          1 MOL1         0.1025
      14    C4      19.076937   20.266298   23.283383 C.3        1 MOL1        -0.2258
      15    H10     18.029939   20.035499   23.047478 H          1 MOL1         0.1036
      16    H11     19.083423   21.105570   23.990906 H          1 MOL1         0.1036
      17    H12     19.512254   19.398875   23.795406 H          1 MOL1         0.1036
@<TRIPOS>BOND
    1     1     2    1
    2     1     3    1
    3     1     4    1
    4     1     5    1
    5     5     6    1
    6     5     7    1
    7     5     8    1
    8     8     9    1
    9     8    10    1
   10     8    11    1
   11    11    12    1
   12    11    13    1
   13    11    14    1
   14    14    15    1
   15    14    16    1
   16    14    17    1
@<TRIPOS>SUBSTRUCTURE
       1 MOL1            1 RESIDUE      1      MOL     
@<SCITEGIC>MOL_PROPERTY
VConf Rank
SciTegic.value.IntegerValue
332

@<SCITEGIC>MOL_PROPERTY
Conf_Id
SciTegic.value.IntegerValue
36

@<SCITEGIC>MOL_PROPERTY
Delta U+W
SciTegic.value.DoubleValue
0.275

@<SCITEGIC>MOL_PROPERTY
U+W
SciTegic.value.DoubleValue
-15.590

@<SCITEGIC>MOL_PROPERTY
Grad RMS
SciTegic.value.DoubleValue
0.000000

@<SCITEGIC>MOL_PROPERTY
U
SciTegic.value.DoubleValue
45.174

@<SCITEGIC>MOL_PROPERTY
W
SciTegic.value.DoubleValue
-60.765

@<SCITEGIC>MOL_PROPERTY
W(PB)
SciTegic.value.DoubleValue
-62.518

@<SCITEGIC>MOL_PROPERTY
W(SA)
SciTegic.value.DoubleValue
1.754

@<SCITEGIC>MOL_PROPERTY
Valence
SciTegic.value.DoubleValue
1.161

@<SCITEGIC>MOL_PROPERTY
Coulomb
SciTegic.value.DoubleValue
43.789

@<SCITEGIC>MOL_PROPERTY
VdW
SciTegic.value.DoubleValue
0.224

@<SCITEGIC>MOL_PROPERTY
VdW6
SciTegic.value.DoubleValue
-2.897

@<SCITEGIC>MOL_PROPERTY
VdW12
SciTegic.value.DoubleValue
3.121

@<SCITEGIC>MOL_PROPERTY
Bond
SciTegic.value.DoubleValue
0.100

@<SCITEGIC>MOL_PROPERTY
Angle
SciTegic.value.DoubleValue
0.500

@<SCITEGIC>MOL_PROPERTY
Pdih
SciTegic.value.DoubleValue
0.561

@<SCITEGIC>MOL_PROPERTY
Idih
SciTegic.value.DoubleValue
0.000

@<SCITEGIC>MOL_PROPERTY
Tether
SciTegic.value.DoubleValue
0.000

@<TRIPOS>MOLECULE
guest-1_confgen4.mol2 : confsearch ligand conformer 333
          17          16           1
SMALL
USER_CHARGES
 
@<TRIPOS>ATOM
       1    N1      18.723588   18.433994   22.894953 N.4        1 MOL1        -0.5891
       2    H1      18.474940   19.353282   22.520883 H          1 MOL1         0.3726
       3    H2      19.181193   18.589937   23.798146 H          1 MOL1         0.3726
       4    H3      17.847054   17.938559   23.087451 H          1 MOL1         0.3726
       5    C1      19.611274   17.659635   21.939750 C.3        1 MOL1         0.0314
       6    H4      19.048819   17.464148   21.022836 H          1 MOL1         0.0999
       7    H5      19.829310   16.698696   22.413664 H          1 MOL1         0.0999
       8    C2      20.940776   18.364208   21.596800 C.3        1 MOL1        -0.1308
       9    H6      21.389908   18.782562   22.507289 H          1 MOL1         0.1025
      10    H7      21.642589   17.599195   21.238945 H          1 MOL1         0.1025
      11    C3      20.826168   19.455300   20.501771 C.3        1 MOL1        -0.1243
      12    H8      20.434705   19.010289   19.576166 H          1 MOL1         0.1025
      13    H9      21.837492   19.813149   20.262698 H          1 MOL1         0.1025
      14    C4      19.955433   20.669286   20.897928 C.3        1 MOL1        -0.2258
      15    H10     18.892849   20.404018   20.945088 H          1 MOL1         0.1036
      16    H11     20.055122   21.468613   20.152076 H          1 MOL1         0.1036
      17    H12     20.261980   21.079845   21.868816 H          1 MOL1         0.1036
@<TRIPOS>BOND
    1     1     2    1
    2     1     3    1
    3     1     4    1
    4     1     5    1
    5     5     6    1
    6     5     7    1
    7     5     8    1
    8     8     9    1
    9     8    10    1
   10     8    11    1
   11    11    12    1
   12    11    13    1
   13    11    14    1
   14    14    15    1
   15    14    16    1
   16    14    17    1
@<TRIPOS>SUBSTRUCTURE
       1 MOL1            1 RESIDUE      1      MOL     
@<SCITEGIC>MOL_PROPERTY
VConf Rank
SciTegic.value.IntegerValue
333

@<SCITEGIC>MOL_PROPERTY
Conf_Id
SciTegic.value.IntegerValue
19

@<SCITEGIC>MOL_PROPERTY
Delta U+W
SciTegic.value.DoubleValue
2.662

@<SCITEGIC>MOL_PROPERTY
U+W
SciTegic.value.DoubleValue
-13.203

@<SCITEGIC>MOL_PROPERTY
Grad RMS
SciTegic.value.DoubleValue
0.000000

@<SCITEGIC>MOL_PROPERTY
U
SciTegic.value.DoubleValue
47.423

@<SCITEGIC>MOL_PROPERTY
W
SciTegic.value.DoubleValue
-60.626

@<SCITEGIC>MOL_PROPERTY
W(PB)
SciTegic.value.DoubleValue
-62.328

@<SCITEGIC>MOL_PROPERTY
W(SA)
SciTegic.value.DoubleValue
1.702

@<SCITEGIC>MOL_PROPERTY
Valence
SciTegic.value.DoubleValue
2.414

@<SCITEGIC>MOL_PROPERTY
Coulomb
SciTegic.value.DoubleValue
44.831

@<SCITEGIC>MOL_PROPERTY
VdW
SciTegic.value.DoubleValue
0.178

@<SCITEGIC>MOL_PROPERTY
VdW6
SciTegic.value.DoubleValue
-3.743

@<SCITEGIC>MOL_PROPERTY
VdW12
SciTegic.value.DoubleValue
3.921

@<SCITEGIC>MOL_PROPERTY
Bond
SciTegic.value.DoubleValue
0.138

@<SCITEGIC>MOL_PROPERTY
Angle
SciTegic.value.DoubleValue
0.941

@<SCITEGIC>MOL_PROPERTY
Pdih
SciTegic.value.DoubleValue
1.335

@<SCITEGIC>MOL_PROPERTY
Idih
SciTegic.value.DoubleValue
0.000

@<SCITEGIC>MOL_PROPERTY
Tether
SciTegic.value.DoubleValue
0.000

@<TRIPOS>MOLECULE
guest-1_confgen4.mol2 : confsearch ligand conformer 334
          17          16           1
SMALL
USER_CHARGES
 
@<TRIPOS>ATOM
       1    N1      18.854424   17.904871   22.631979 N.4        1 MOL1        -0.5891
       2    H1      17.962647   17.753419   23.114286 H          1 MOL1         0.3726
       3    H2      19.488972   17.162223   22.940691 H          1 MOL1         0.3726
       4    H3      18.685789   17.760694   21.633170 H          1 MOL1         0.3726
       5    C1      19.420990   19.283240   22.913301 C.3        1 MOL1         0.0314
       6    H4      19.572008   19.352448   23.994014 H          1 MOL1         0.0999
       7    H5      18.675992   20.030746   22.627796 H          1 MOL1         0.0999
       8    C2      20.756904   19.577932   22.199088 C.3        1 MOL1        -0.1308
       9    H6      21.254577   20.392198   22.742355 H          1 MOL1         0.1025
      10    H7      21.424970   18.710165   22.279071 H          1 MOL1         0.1025
      11    C3      20.611880   20.012019   20.718129 C.3        1 MOL1        -0.1243
      12    H8      21.604720   20.296363   20.342089 H          1 MOL1         0.1025
      13    H9      19.993100   20.918366   20.657563 H          1 MOL1         0.1025
      14    C4      20.026042   18.925386   19.788127 C.3        1 MOL1        -0.2258
      15    H10     20.565363   17.975306   19.895983 H          1 MOL1         0.1036
      16    H11     20.108494   19.237693   18.738926 H          1 MOL1         0.1036
      17    H12     18.962340   18.753778   19.990035 H          1 MOL1         0.1036
@<TRIPOS>BOND
    1     1     2    1
    2     1     3    1
    3     1     4    1
    4     1     5    1
    5     5     6    1
    6     5     7    1
    7     5     8    1
    8     8     9    1
    9     8    10    1
   10     8    11    1
   11    11    12    1
   12    11    13    1
   13    11    14    1
   14    14    15    1
   15    14    16    1
   16    14    17    1
@<TRIPOS>SUBSTRUCTURE
       1 MOL1            1 RESIDUE      1      MOL     
@<SCITEGIC>MOL_PROPERTY
VConf Rank
SciTegic.value.IntegerValue
334

@<SCITEGIC>MOL_PROPERTY
Conf_Id
SciTegic.value.IntegerValue
44

@<SCITEGIC>MOL_PROPERTY
Delta U+W
SciTegic.value.DoubleValue
2.712

@<SCITEGIC>MOL_PROPERTY
U+W
SciTegic.value.DoubleValue
-13.153

@<SCITEGIC>MOL_PROPERTY
Grad RMS
SciTegic.value.DoubleValue
0.000000

@<SCITEGIC>MOL_PROPERTY
U
SciTegic.value.DoubleValue
47.423

@<SCITEGIC>MOL_PROPERTY
W
SciTegic.value.DoubleValue
-60.576

@<SCITEGIC>MOL_PROPERTY
W(PB)
SciTegic.value.DoubleValue
-62.262

@<SCITEGIC>MOL_PROPERTY
W(SA)
SciTegic.value.DoubleValue
1.687

@<SCITEGIC>MOL_PROPERTY
Valence
SciTegic.value.DoubleValue
2.414

@<SCITEGIC>MOL_PROPERTY
Coulomb
SciTegic.value.DoubleValue
44.831

@<SCITEGIC>MOL_PROPERTY
VdW
SciTegic.value.DoubleValue
0.178

@<SCITEGIC>MOL_PROPERTY
VdW6
SciTegic.value.DoubleValue
-3.743

@<SCITEGIC>MOL_PROPERTY
VdW12
SciTegic.value.DoubleValue
3.922

@<SCITEGIC>MOL_PROPERTY
Bond
SciTegic.value.DoubleValue
0.138

@<SCITEGIC>MOL_PROPERTY
Angle
SciTegic.value.DoubleValue
0.941

@<SCITEGIC>MOL_PROPERTY
Pdih
SciTegic.value.DoubleValue
1.335

@<SCITEGIC>MOL_PROPERTY
Idih
SciTegic.value.DoubleValue
0.000

@<SCITEGIC>MOL_PROPERTY
Tether
SciTegic.value.DoubleValue
0.000

@<TRIPOS>MOLECULE
guest-1_confgen4.mol2 : confsearch ligand conformer 335
          17          16           1
SMALL
USER_CHARGES
 
@<TRIPOS>ATOM
       1    N1      20.636408   17.414576   20.708745 N.4        1 MOL1        -0.5891
       2    H1      19.911172   17.798105   20.096058 H          1 MOL1         0.3726
       3    H2      20.258682   16.558791   21.126276 H          1 MOL1         0.3726
       4    H3      21.417542   17.132846   20.107808 H          1 MOL1         0.3726
       5    C1      21.068344   18.415532   21.762963 C.3        1 MOL1         0.0314
       6    H4      21.486410   19.287027   21.252549 H          1 MOL1         0.0999
       7    H5      21.865491   17.954832   22.352752 H          1 MOL1         0.0999
       8    C2      19.929104   18.860258   22.703320 C.3        1 MOL1        -0.1308
       9    H6      19.543202   17.984263   23.241336 H          1 MOL1         0.1025
      10    H7      20.345750   19.529360   23.467855 H          1 MOL1         0.1025
      11    C3      18.760232   19.576529   21.982038 C.3        1 MOL1        -0.1243
      12    H8      17.995049   19.841289   22.725208 H          1 MOL1         0.1025
      13    H9      18.273129   18.888773   21.277497 H          1 MOL1         0.1025
      14    C4      19.201967   20.857517   21.237902 C.3        1 MOL1        -0.2258
      15    H10     19.691522   21.562480   21.922323 H          1 MOL1         0.1036
      16    H11     18.334164   21.366001   20.798208 H          1 MOL1         0.1036
      17    H12     19.900473   20.630584   20.422710 H          1 MOL1         0.1036
@<TRIPOS>BOND
    1     1     2    1
    2     1     3    1
    3     1     4    1
    4     1     5    1
    5     5     6    1
    6     5     7    1
    7     5     8    1
    8     8     9    1
    9     8    10    1
   10     8    11    1
   11    11    12    1
   12    11    13    1
   13    11    14    1
   14    14    15    1
   15    14    16    1
   16    14    17    1
@<TRIPOS>SUBSTRUCTURE
       1 MOL1            1 RESIDUE      1      MOL     
@<SCITEGIC>MOL_PROPERTY
VConf Rank
SciTegic.value.IntegerValue
335

@<SCITEGIC>MOL_PROPERTY
Conf_Id
SciTegic.value.IntegerValue
1

@<SCITEGIC>MOL_PROPERTY
Delta U+W
SciTegic.value.DoubleValue
0.685

@<SCITEGIC>MOL_PROPERTY
U+W
SciTegic.value.DoubleValue
-15.179

@<SCITEGIC>MOL_PROPERTY
Grad RMS
SciTegic.value.DoubleValue
0.000000

@<SCITEGIC>MOL_PROPERTY
U
SciTegic.value.DoubleValue
45.697

@<SCITEGIC>MOL_PROPERTY
W
SciTegic.value.DoubleValue
-60.876

@<SCITEGIC>MOL_PROPERTY
W(PB)
SciTegic.value.DoubleValue
-62.586

@<SCITEGIC>MOL_PROPERTY
W(SA)
SciTegic.value.DoubleValue
1.710

@<SCITEGIC>MOL_PROPERTY
Valence
SciTegic.value.DoubleValue
1.263

@<SCITEGIC>MOL_PROPERTY
Coulomb
SciTegic.value.DoubleValue
44.179

@<SCITEGIC>MOL_PROPERTY
VdW
SciTegic.value.DoubleValue
0.255

@<SCITEGIC>MOL_PROPERTY
VdW6
SciTegic.value.DoubleValue
-3.552

@<SCITEGIC>MOL_PROPERTY
VdW12
SciTegic.value.DoubleValue
3.807

@<SCITEGIC>MOL_PROPERTY
Bond
SciTegic.value.DoubleValue
0.125

@<SCITEGIC>MOL_PROPERTY
Angle
SciTegic.value.DoubleValue
0.616

@<SCITEGIC>MOL_PROPERTY
Pdih
SciTegic.value.DoubleValue
0.521

@<SCITEGIC>MOL_PROPERTY
Idih
SciTegic.value.DoubleValue
0.000

@<SCITEGIC>MOL_PROPERTY
Tether
SciTegic.value.DoubleValue
0.000

@<TRIPOS>MOLECULE
guest-1_confgen4.mol2 : confsearch ligand conformer 336
          17          16           1
SMALL
USER_CHARGES
 
@<TRIPOS>ATOM
       1    N1      19.162235   17.558493   20.504918 N.4        1 MOL1        -0.5891
       2    H1      18.147410   17.653530   20.402568 H          1 MOL1         0.3726
       3    H2      19.337976   17.178629   21.439406 H          1 MOL1         0.3726
       4    H3      19.463995   16.847328   19.831232 H          1 MOL1         0.3726
       5    C1      19.878504   18.877983   20.290996 C.3        1 MOL1         0.0314
       6    H4      19.677928   19.203473   19.266612 H          1 MOL1         0.0999
       7    H5      20.952932   18.700074   20.384576 H          1 MOL1         0.0999
       8    C2      19.447340   19.986969   21.272916 C.3        1 MOL1        -0.1308
       9    H6      19.966487   20.916233   21.003179 H          1 MOL1         0.1025
      10    H7      18.375497   20.186856   21.142733 H          1 MOL1         0.1025
      11    C3      19.731971   19.657719   22.759570 C.3        1 MOL1        -0.1243
      12    H8      19.146876   18.781756   23.071027 H          1 MOL1         0.1025
      13    H9      19.380334   20.493518   23.380614 H          1 MOL1         0.1025
      14    C4      21.230568   19.412633   23.049290 C.3        1 MOL1        -0.2258
      15    H10     21.393430   19.248364   24.122351 H          1 MOL1         0.1036
      16    H11     21.837263   20.276154   22.747099 H          1 MOL1         0.1036
      17    H12     21.605238   18.528326   22.518656 H          1 MOL1         0.1036
@<TRIPOS>BOND
    1     1     2    1
    2     1     3    1
    3     1     4    1
    4     1     5    1
    5     5     6    1
    6     5     7    1
    7     5     8    1
    8     8     9    1
    9     8    10    1
   10     8    11    1
   11    11    12    1
   12    11    13    1
   13    11    14    1
   14    14    15    1
   15    14    16    1
   16    14    17    1
@<TRIPOS>SUBSTRUCTURE
       1 MOL1            1 RESIDUE      1      MOL     
@<SCITEGIC>MOL_PROPERTY
VConf Rank
SciTegic.value.IntegerValue
336

@<SCITEGIC>MOL_PROPERTY
Conf_Id
SciTegic.value.IntegerValue
43

@<SCITEGIC>MOL_PROPERTY
Delta U+W
SciTegic.value.DoubleValue
0.642

@<SCITEGIC>MOL_PROPERTY
U+W
SciTegic.value.DoubleValue
-15.222

@<SCITEGIC>MOL_PROPERTY
Grad RMS
SciTegic.value.DoubleValue
0.000000

@<SCITEGIC>MOL_PROPERTY
U
SciTegic.value.DoubleValue
45.697

@<SCITEGIC>MOL_PROPERTY
W
SciTegic.value.DoubleValue
-60.919

@<SCITEGIC>MOL_PROPERTY
W(PB)
SciTegic.value.DoubleValue
-62.631

@<SCITEGIC>MOL_PROPERTY
W(SA)
SciTegic.value.DoubleValue
1.712

@<SCITEGIC>MOL_PROPERTY
Valence
SciTegic.value.DoubleValue
1.262

@<SCITEGIC>MOL_PROPERTY
Coulomb
SciTegic.value.DoubleValue
44.179

@<SCITEGIC>MOL_PROPERTY
VdW
SciTegic.value.DoubleValue
0.255

@<SCITEGIC>MOL_PROPERTY
VdW6
SciTegic.value.DoubleValue
-3.552

@<SCITEGIC>MOL_PROPERTY
VdW12
SciTegic.value.DoubleValue
3.807

@<SCITEGIC>MOL_PROPERTY
Bond
SciTegic.value.DoubleValue
0.125

@<SCITEGIC>MOL_PROPERTY
Angle
SciTegic.value.DoubleValue
0.616

@<SCITEGIC>MOL_PROPERTY
Pdih
SciTegic.value.DoubleValue
0.521

@<SCITEGIC>MOL_PROPERTY
Idih
SciTegic.value.DoubleValue
0.000

@<SCITEGIC>MOL_PROPERTY
Tether
SciTegic.value.DoubleValue
0.000

@<TRIPOS>MOLECULE
guest-1_confgen4.mol2 : confsearch ligand conformer 337
          17          16           1
SMALL
USER_CHARGES
 
@<TRIPOS>ATOM
       1    N1      19.597653   21.459139   22.444095 N.4        1 MOL1        -0.5891
       2    H1      20.197974   21.400220   23.272248 H          1 MOL1         0.3726
       3    H2      18.631284   21.344121   22.764405 H          1 MOL1         0.3726
       4    H3      19.679265   22.416443   22.086579 H          1 MOL1         0.3726
       5    C1      19.974418   20.431836   21.395260 C.3        1 MOL1         0.0314
       6    H4      21.001600   20.633161   21.079210 H          1 MOL1         0.0999
       7    H5      19.316927   20.572865   20.533088 H          1 MOL1         0.0999
       8    C2      19.862978   18.981346   21.899166 C.3        1 MOL1        -0.1308
       9    H6      20.512782   18.847706   22.774316 H          1 MOL1         0.1025
      10    H7      18.833883   18.787573   22.229930 H          1 MOL1         0.1025
      11    C3      20.255219   17.968133   20.801411 C.3        1 MOL1        -0.1243
      12    H8      21.284112   18.163699   20.467555 H          1 MOL1         0.1025
      13    H9      19.607225   18.103582   19.923867 H          1 MOL1         0.1025
      14    C4      20.145912   16.510836   21.299700 C.3        1 MOL1        -0.2258
      15    H10     20.428554   15.807275   20.505871 H          1 MOL1         0.1036
      16    H11     19.119268   16.274547   21.608529 H          1 MOL1         0.1036
      17    H12     20.809353   16.335163   22.156551 H          1 MOL1         0.1036
@<TRIPOS>BOND
    1     1     2    1
    2     1     3    1
    3     1     4    1
    4     1     5    1
    5     5     6    1
    6     5     7    1
    7     5     8    1
    8     8     9    1
    9     8    10    1
   10     8    11    1
   11    11    12    1
   12    11    13    1
   13    11    14    1
   14    14    15    1
   15    14    16    1
   16    14    17    1
@<TRIPOS>SUBSTRUCTURE
       1 MOL1            1 RESIDUE      1      MOL     
@<SCITEGIC>MOL_PROPERTY
VConf Rank
SciTegic.value.IntegerValue
337

@<SCITEGIC>MOL_PROPERTY
Conf_Id
SciTegic.value.IntegerValue
7

@<SCITEGIC>MOL_PROPERTY
Delta U+W
SciTegic.value.DoubleValue
0.000

@<SCITEGIC>MOL_PROPERTY
U+W
SciTegic.value.DoubleValue
-15.865

@<SCITEGIC>MOL_PROPERTY
Grad RMS
SciTegic.value.DoubleValue
0.000000

@<SCITEGIC>MOL_PROPERTY
U
SciTegic.value.DoubleValue
44.664

@<SCITEGIC>MOL_PROPERTY
W
SciTegic.value.DoubleValue
-60.529

@<SCITEGIC>MOL_PROPERTY
W(PB)
SciTegic.value.DoubleValue
-62.309

@<SCITEGIC>MOL_PROPERTY
W(SA)
SciTegic.value.DoubleValue
1.780

@<SCITEGIC>MOL_PROPERTY
Valence
SciTegic.value.DoubleValue
0.872

@<SCITEGIC>MOL_PROPERTY
Coulomb
SciTegic.value.DoubleValue
43.648

@<SCITEGIC>MOL_PROPERTY
VdW
SciTegic.value.DoubleValue
0.144

@<SCITEGIC>MOL_PROPERTY
VdW6
SciTegic.value.DoubleValue
-2.370

@<SCITEGIC>MOL_PROPERTY
VdW12
SciTegic.value.DoubleValue
2.515

@<SCITEGIC>MOL_PROPERTY
Bond
SciTegic.value.DoubleValue
0.080

@<SCITEGIC>MOL_PROPERTY
Angle
SciTegic.value.DoubleValue
0.376

@<SCITEGIC>MOL_PROPERTY
Pdih
SciTegic.value.DoubleValue
0.416

@<SCITEGIC>MOL_PROPERTY
Idih
SciTegic.value.DoubleValue
0.000

@<SCITEGIC>MOL_PROPERTY
Tether
SciTegic.value.DoubleValue
0.000

@<TRIPOS>MOLECULE
guest-1_confgen4.mol2 : confsearch ligand conformer 338
          17          16           1
SMALL
USER_CHARGES
 
@<TRIPOS>ATOM
       1    N1      21.814470   20.143553   22.703712 N.4        1 MOL1        -0.5891
       2    H1      21.939600   19.719296   23.627832 H          1 MOL1         0.3726
       3    H2      21.395992   21.067042   22.850992 H          1 MOL1         0.3726
       4    H3      22.752175   20.300757   22.320517 H          1 MOL1         0.3726
       5    C1      20.970336   19.276920   21.790617 C.3        1 MOL1         0.0314
       6    H4      21.489035   18.324128   21.654435 H          1 MOL1         0.0999
       7    H5      20.906776   19.774658   20.819507 H          1 MOL1         0.0999
       8    C2      19.552708   19.020772   22.337132 C.3        1 MOL1        -0.1308
       9    H6      19.628085   18.557343   23.329820 H          1 MOL1         0.1025
      10    H7      19.032351   19.977838   22.475485 H          1 MOL1         0.1025
      11    C3      18.715007   18.103467   21.415821 C.3        1 MOL1        -0.1243
      12    H8      17.750147   17.896666   21.899825 H          1 MOL1         0.1025
      13    H9      19.218213   17.132769   21.303083 H          1 MOL1         0.1025
      14    C4      18.457736   18.719912   20.021631 C.3        1 MOL1        -0.2258
      15    H10     17.960382   19.694888   20.106398 H          1 MOL1         0.1036
      16    H11     17.810241   18.064687   19.424608 H          1 MOL1         0.1036
      17    H12     19.392127   18.859075   19.463386 H          1 MOL1         0.1036
@<TRIPOS>BOND
    1     1     2    1
    2     1     3    1
    3     1     4    1
    4     1     5    1
    5     5     6    1
    6     5     7    1
    7     5     8    1
    8     8     9    1
    9     8    10    1
   10     8    11    1
   11    11    12    1
   12    11    13    1
   13    11    14    1
   14    14    15    1
   15    14    16    1
   16    14    17    1
@<TRIPOS>SUBSTRUCTURE
       1 MOL1            1 RESIDUE      1      MOL     
@<SCITEGIC>MOL_PROPERTY
VConf Rank
SciTegic.value.IntegerValue
338

@<SCITEGIC>MOL_PROPERTY
Conf_Id
SciTegic.value.IntegerValue
36

@<SCITEGIC>MOL_PROPERTY
Delta U+W
SciTegic.value.DoubleValue
0.275

@<SCITEGIC>MOL_PROPERTY
U+W
SciTegic.value.DoubleValue
-15.590

@<SCITEGIC>MOL_PROPERTY
Grad RMS
SciTegic.value.DoubleValue
0.000000

@<SCITEGIC>MOL_PROPERTY
U
SciTegic.value.DoubleValue
45.174

@<SCITEGIC>MOL_PROPERTY
W
SciTegic.value.DoubleValue
-60.765

@<SCITEGIC>MOL_PROPERTY
W(PB)
SciTegic.value.DoubleValue
-62.518

@<SCITEGIC>MOL_PROPERTY
W(SA)
SciTegic.value.DoubleValue
1.754

@<SCITEGIC>MOL_PROPERTY
Valence
SciTegic.value.DoubleValue
1.161

@<SCITEGIC>MOL_PROPERTY
Coulomb
SciTegic.value.DoubleValue
43.789

@<SCITEGIC>MOL_PROPERTY
VdW
SciTegic.value.DoubleValue
0.224

@<SCITEGIC>MOL_PROPERTY
VdW6
SciTegic.value.DoubleValue
-2.897

@<SCITEGIC>MOL_PROPERTY
VdW12
SciTegic.value.DoubleValue
3.121

@<SCITEGIC>MOL_PROPERTY
Bond
SciTegic.value.DoubleValue
0.100

@<SCITEGIC>MOL_PROPERTY
Angle
SciTegic.value.DoubleValue
0.500

@<SCITEGIC>MOL_PROPERTY
Pdih
SciTegic.value.DoubleValue
0.561

@<SCITEGIC>MOL_PROPERTY
Idih
SciTegic.value.DoubleValue
0.000

@<SCITEGIC>MOL_PROPERTY
Tether
SciTegic.value.DoubleValue
0.000

@<TRIPOS>MOLECULE
guest-1_confgen4.mol2 : confsearch ligand conformer 339
          17          16           1
SMALL
USER_CHARGES
 
@<TRIPOS>ATOM
       1    N1      20.725814   19.201073   19.931335 N.4        1 MOL1        -0.5891
       2    H1      21.355597   18.722648   20.580433 H          1 MOL1         0.3726
       3    H2      21.027926   20.178804   19.883921 H          1 MOL1         0.3726
       4    H3      20.883406   18.795920   19.002982 H          1 MOL1         0.3726
       5    C1      19.276597   19.079300   20.361418 C.3        1 MOL1         0.0314
       6    H4      18.991032   18.024482   20.328028 H          1 MOL1         0.0999
       7    H5      18.677051   19.615193   19.620540 H          1 MOL1         0.0999
       8    C2      18.979617   19.656769   21.761399 C.3        1 MOL1        -0.1308
       9    H6      19.482798   20.625181   21.882712 H          1 MOL1         0.1025
      10    H7      17.903321   19.867821   21.815162 H          1 MOL1         0.1025
      11    C3      19.339112   18.711489   22.936097 C.3        1 MOL1        -0.1243
      12    H8      18.780742   17.769984   22.837030 H          1 MOL1         0.1025
      13    H9      18.991852   19.173676   23.870861 H          1 MOL1         0.1025
      14    C4      20.847851   18.403850   23.070065 C.3        1 MOL1        -0.2258
      15    H10     21.200828   17.759275   22.256673 H          1 MOL1         0.1036
      16    H11     21.045969   17.873395   24.010555 H          1 MOL1         0.1036
      17    H12     21.443687   19.325857   23.076049 H          1 MOL1         0.1036
@<TRIPOS>BOND
    1     1     2    1
    2     1     3    1
    3     1     4    1
    4     1     5    1
    5     5     6    1
    6     5     7    1
    7     5     8    1
    8     8     9    1
    9     8    10    1
   10     8    11    1
   11    11    12    1
   12    11    13    1
   13    11    14    1
   14    14    15    1
   15    14    16    1
   16    14    17    1
@<TRIPOS>SUBSTRUCTURE
       1 MOL1            1 RESIDUE      1      MOL     
@<SCITEGIC>MOL_PROPERTY
VConf Rank
SciTegic.value.IntegerValue
339

@<SCITEGIC>MOL_PROPERTY
Conf_Id
SciTegic.value.IntegerValue
19

@<SCITEGIC>MOL_PROPERTY
Delta U+W
SciTegic.value.DoubleValue
2.662

@<SCITEGIC>MOL_PROPERTY
U+W
SciTegic.value.DoubleValue
-13.203

@<SCITEGIC>MOL_PROPERTY
Grad RMS
SciTegic.value.DoubleValue
0.000000

@<SCITEGIC>MOL_PROPERTY
U
SciTegic.value.DoubleValue
47.423

@<SCITEGIC>MOL_PROPERTY
W
SciTegic.value.DoubleValue
-60.626

@<SCITEGIC>MOL_PROPERTY
W(PB)
SciTegic.value.DoubleValue
-62.328

@<SCITEGIC>MOL_PROPERTY
W(SA)
SciTegic.value.DoubleValue
1.702

@<SCITEGIC>MOL_PROPERTY
Valence
SciTegic.value.DoubleValue
2.414

@<SCITEGIC>MOL_PROPERTY
Coulomb
SciTegic.value.DoubleValue
44.831

@<SCITEGIC>MOL_PROPERTY
VdW
SciTegic.value.DoubleValue
0.178

@<SCITEGIC>MOL_PROPERTY
VdW6
SciTegic.value.DoubleValue
-3.743

@<SCITEGIC>MOL_PROPERTY
VdW12
SciTegic.value.DoubleValue
3.921

@<SCITEGIC>MOL_PROPERTY
Bond
SciTegic.value.DoubleValue
0.138

@<SCITEGIC>MOL_PROPERTY
Angle
SciTegic.value.DoubleValue
0.941

@<SCITEGIC>MOL_PROPERTY
Pdih
SciTegic.value.DoubleValue
1.335

@<SCITEGIC>MOL_PROPERTY
Idih
SciTegic.value.DoubleValue
0.000

@<SCITEGIC>MOL_PROPERTY
Tether
SciTegic.value.DoubleValue
0.000

@<TRIPOS>MOLECULE
guest-1_confgen4.mol2 : confsearch ligand conformer 340
          17          16           1
SMALL
USER_CHARGES
 
@<TRIPOS>ATOM
       1    N1      18.941118   17.576312   20.994967 N.4        1 MOL1        -0.5891
       2    H1      18.998215   16.634402   20.594506 H          1 MOL1         0.3726
       3    H2      17.961677   17.868922   20.927470 H          1 MOL1         0.3726
       4    H3      19.163008   17.495119   21.990465 H          1 MOL1         0.3726
       5    C1      19.868990   18.546516   20.289420 C.3        1 MOL1         0.0314
       6    H4      19.563827   18.574979   19.239848 H          1 MOL1         0.0999
       7    H5      20.886868   18.150051   20.334602 H          1 MOL1         0.0999
       8    C2      19.840996   19.980062   20.860187 C.3        1 MOL1        -0.1308
       9    H6      20.220568   20.657214   20.083504 H          1 MOL1         0.1025
      10    H7      18.804324   20.289087   21.048718 H          1 MOL1         0.1025
      11    C3      20.703703   20.182463   22.131986 C.3        1 MOL1        -0.1243
      12    H8      20.696165   21.251110   22.388749 H          1 MOL1         0.1025
      13    H9      21.750677   19.930202   21.912370 H          1 MOL1         0.1025
      14    C4      20.227141   19.377349   23.362254 C.3        1 MOL1        -0.2258
      15    H10     19.157293   19.534630   23.551568 H          1 MOL1         0.1036
      16    H11     20.774123   19.694478   24.259692 H          1 MOL1         0.1036
      17    H12     20.410519   18.303949   23.236296 H          1 MOL1         0.1036
@<TRIPOS>BOND
    1     1     2    1
    2     1     3    1
    3     1     4    1
    4     1     5    1
    5     5     6    1
    6     5     7    1
    7     5     8    1
    8     8     9    1
    9     8    10    1
   10     8    11    1
   11    11    12    1
   12    11    13    1
   13    11    14    1
   14    14    15    1
   15    14    16    1
   16    14    17    1
@<TRIPOS>SUBSTRUCTURE
       1 MOL1            1 RESIDUE      1      MOL     
@<SCITEGIC>MOL_PROPERTY
VConf Rank
SciTegic.value.IntegerValue
340

@<SCITEGIC>MOL_PROPERTY
Conf_Id
SciTegic.value.IntegerValue
44

@<SCITEGIC>MOL_PROPERTY
Delta U+W
SciTegic.value.DoubleValue
2.712

@<SCITEGIC>MOL_PROPERTY
U+W
SciTegic.value.DoubleValue
-13.153

@<SCITEGIC>MOL_PROPERTY
Grad RMS
SciTegic.value.DoubleValue
0.000000

@<SCITEGIC>MOL_PROPERTY
U
SciTegic.value.DoubleValue
47.423

@<SCITEGIC>MOL_PROPERTY
W
SciTegic.value.DoubleValue
-60.576

@<SCITEGIC>MOL_PROPERTY
W(PB)
SciTegic.value.DoubleValue
-62.262

@<SCITEGIC>MOL_PROPERTY
W(SA)
SciTegic.value.DoubleValue
1.687

@<SCITEGIC>MOL_PROPERTY
Valence
SciTegic.value.DoubleValue
2.414

@<SCITEGIC>MOL_PROPERTY
Coulomb
SciTegic.value.DoubleValue
44.831

@<SCITEGIC>MOL_PROPERTY
VdW
SciTegic.value.DoubleValue
0.178

@<SCITEGIC>MOL_PROPERTY
VdW6
SciTegic.value.DoubleValue
-3.743

@<SCITEGIC>MOL_PROPERTY
VdW12
SciTegic.value.DoubleValue
3.922

@<SCITEGIC>MOL_PROPERTY
Bond
SciTegic.value.DoubleValue
0.138

@<SCITEGIC>MOL_PROPERTY
Angle
SciTegic.value.DoubleValue
0.941

@<SCITEGIC>MOL_PROPERTY
Pdih
SciTegic.value.DoubleValue
1.335

@<SCITEGIC>MOL_PROPERTY
Idih
SciTegic.value.DoubleValue
0.000

@<SCITEGIC>MOL_PROPERTY
Tether
SciTegic.value.DoubleValue
0.000

@<TRIPOS>MOLECULE
guest-1_confgen4.mol2 : confsearch ligand conformer 341
          17          16           1
SMALL
USER_CHARGES
 
@<TRIPOS>ATOM
       1    N1      20.276335   20.714852   22.603449 N.4        1 MOL1        -0.5891
       2    H1      19.835970   20.060731   23.256633 H          1 MOL1         0.3726
       3    H2      19.584211   21.438234   22.386511 H          1 MOL1         0.3726
       4    H3      21.039318   21.175309   23.109912 H          1 MOL1         0.3726
       5    C1      20.771773   20.012895   21.353788 C.3        1 MOL1         0.0314
       6    H4      21.524616   19.278900   21.652591 H          1 MOL1         0.0999
       7    H5      21.260573   20.760737   20.723436 H          1 MOL1         0.0999
       8    C2      19.656539   19.315594   20.547596 C.3        1 MOL1        -0.1308
       9    H6      18.926899   20.066863   20.217491 H          1 MOL1         0.1025
      10    H7      20.095249   18.893442   19.633744 H          1 MOL1         0.1025
      11    C3      18.923671   18.194374   21.325623 C.3        1 MOL1        -0.1243
      12    H8      18.142361   17.768636   20.680483 H          1 MOL1         0.1025
      13    H9      18.401757   18.617031   22.194887 H          1 MOL1         0.1025
      14    C4      19.867840   17.060202   21.786056 C.3        1 MOL1        -0.2258
      15    H10     20.401190   16.620218   20.933402 H          1 MOL1         0.1036
      16    H11     19.297804   16.258858   22.273781 H          1 MOL1         0.1036
      17    H12     20.612537   17.421887   22.506166 H          1 MOL1         0.1036
@<TRIPOS>BOND
    1     1     2    1
    2     1     3    1
    3     1     4    1
    4     1     5    1
    5     5     6    1
    6     5     7    1
    7     5     8    1
    8     8     9    1
    9     8    10    1
   10     8    11    1
   11    11    12    1
   12    11    13    1
   13    11    14    1
   14    14    15    1
   15    14    16    1
   16    14    17    1
@<TRIPOS>SUBSTRUCTURE
       1 MOL1            1 RESIDUE      1      MOL     
@<SCITEGIC>MOL_PROPERTY
VConf Rank
SciTegic.value.IntegerValue
341

@<SCITEGIC>MOL_PROPERTY
Conf_Id
SciTegic.value.IntegerValue
1

@<SCITEGIC>MOL_PROPERTY
Delta U+W
SciTegic.value.DoubleValue
0.685

@<SCITEGIC>MOL_PROPERTY
U+W
SciTegic.value.DoubleValue
-15.179

@<SCITEGIC>MOL_PROPERTY
Grad RMS
SciTegic.value.DoubleValue
0.000000

@<SCITEGIC>MOL_PROPERTY
U
SciTegic.value.DoubleValue
45.697

@<SCITEGIC>MOL_PROPERTY
W
SciTegic.value.DoubleValue
-60.876

@<SCITEGIC>MOL_PROPERTY
W(PB)
SciTegic.value.DoubleValue
-62.586

@<SCITEGIC>MOL_PROPERTY
W(SA)
SciTegic.value.DoubleValue
1.710

@<SCITEGIC>MOL_PROPERTY
Valence
SciTegic.value.DoubleValue
1.263

@<SCITEGIC>MOL_PROPERTY
Coulomb
SciTegic.value.DoubleValue
44.179

@<SCITEGIC>MOL_PROPERTY
VdW
SciTegic.value.DoubleValue
0.255

@<SCITEGIC>MOL_PROPERTY
VdW6
SciTegic.value.DoubleValue
-3.552

@<SCITEGIC>MOL_PROPERTY
VdW12
SciTegic.value.DoubleValue
3.807

@<SCITEGIC>MOL_PROPERTY
Bond
SciTegic.value.DoubleValue
0.125

@<SCITEGIC>MOL_PROPERTY
Angle
SciTegic.value.DoubleValue
0.616

@<SCITEGIC>MOL_PROPERTY
Pdih
SciTegic.value.DoubleValue
0.521

@<SCITEGIC>MOL_PROPERTY
Idih
SciTegic.value.DoubleValue
0.000

@<SCITEGIC>MOL_PROPERTY
Tether
SciTegic.value.DoubleValue
0.000

@<TRIPOS>MOLECULE
guest-1_confgen4.mol2 : confsearch ligand conformer 342
          17          16           1
SMALL
USER_CHARGES
 
@<TRIPOS>ATOM
       1    N1      19.580652   20.093653   19.957697 N.4        1 MOL1        -0.5891
       2    H1      19.114622   20.979686   20.174813 H          1 MOL1         0.3726
       3    H2      18.867959   19.359449   19.995924 H          1 MOL1         0.3726
       4    H3      19.896130   20.154026   18.984303 H          1 MOL1         0.3726
       5    C1      20.729557   19.811318   20.906466 C.3        1 MOL1         0.0314
       6    H4      21.465416   20.610963   20.785561 H          1 MOL1         0.0999
       7    H5      21.198373   18.872046   20.601857 H          1 MOL1         0.0999
       8    C2      20.307245   19.725577   22.387756 C.3        1 MOL1        -0.1308
       9    H6      21.206602   19.584377   23.001778 H          1 MOL1         0.1025
      10    H7      19.874940   20.686910   22.695487 H          1 MOL1         0.1025
      11    C3      19.299974   18.588444   22.690894 C.3        1 MOL1        -0.1243
      12    H8      18.358274   18.765002   22.153603 H          1 MOL1         0.1025
      13    H9      19.048240   18.614624   23.760403 H          1 MOL1         0.1025
      14    C4      19.845840   17.185917   22.337699 C.3        1 MOL1        -0.2258
      15    H10     19.127484   16.408631   22.628832 H          1 MOL1         0.1036
      16    H11     20.787904   16.985044   22.864229 H          1 MOL1         0.1036
      17    H12     20.026777   17.082372   21.260439 H          1 MOL1         0.1036
@<TRIPOS>BOND
    1     1     2    1
    2     1     3    1
    3     1     4    1
    4     1     5    1
    5     5     6    1
    6     5     7    1
    7     5     8    1
    8     8     9    1
    9     8    10    1
   10     8    11    1
   11    11    12    1
   12    11    13    1
   13    11    14    1
   14    14    15    1
   15    14    16    1
   16    14    17    1
@<TRIPOS>SUBSTRUCTURE
       1 MOL1            1 RESIDUE      1      MOL     
@<SCITEGIC>MOL_PROPERTY
VConf Rank
SciTegic.value.IntegerValue
342

@<SCITEGIC>MOL_PROPERTY
Conf_Id
SciTegic.value.IntegerValue
43

@<SCITEGIC>MOL_PROPERTY
Delta U+W
SciTegic.value.DoubleValue
0.642

@<SCITEGIC>MOL_PROPERTY
U+W
SciTegic.value.DoubleValue
-15.222

@<SCITEGIC>MOL_PROPERTY
Grad RMS
SciTegic.value.DoubleValue
0.000000

@<SCITEGIC>MOL_PROPERTY
U
SciTegic.value.DoubleValue
45.697

@<SCITEGIC>MOL_PROPERTY
W
SciTegic.value.DoubleValue
-60.919

@<SCITEGIC>MOL_PROPERTY
W(PB)
SciTegic.value.DoubleValue
-62.631

@<SCITEGIC>MOL_PROPERTY
W(SA)
SciTegic.value.DoubleValue
1.712

@<SCITEGIC>MOL_PROPERTY
Valence
SciTegic.value.DoubleValue
1.262

@<SCITEGIC>MOL_PROPERTY
Coulomb
SciTegic.value.DoubleValue
44.179

@<SCITEGIC>MOL_PROPERTY
VdW
SciTegic.value.DoubleValue
0.255

@<SCITEGIC>MOL_PROPERTY
VdW6
SciTegic.value.DoubleValue
-3.552

@<SCITEGIC>MOL_PROPERTY
VdW12
SciTegic.value.DoubleValue
3.807

@<SCITEGIC>MOL_PROPERTY
Bond
SciTegic.value.DoubleValue
0.125

@<SCITEGIC>MOL_PROPERTY
Angle
SciTegic.value.DoubleValue
0.616

@<SCITEGIC>MOL_PROPERTY
Pdih
SciTegic.value.DoubleValue
0.521

@<SCITEGIC>MOL_PROPERTY
Idih
SciTegic.value.DoubleValue
0.000

@<SCITEGIC>MOL_PROPERTY
Tether
SciTegic.value.DoubleValue
0.000

@<TRIPOS>MOLECULE
guest-1_confgen4.mol2 : confsearch ligand conformer 343
          17          16           1
SMALL
USER_CHARGES
 
@<TRIPOS>ATOM
       1    N1      20.384430   19.960459   23.967989 N.4        1 MOL1        -0.5891
       2    H1      20.515398   19.056402   24.431913 H          1 MOL1         0.3726
       3    H2      19.427306   20.265746   24.169017 H          1 MOL1         0.3726
       4    H3      21.011204   20.625401   24.432655 H          1 MOL1         0.3726
       5    C1      20.653515   19.878790   22.478600 C.3        1 MOL1         0.0314
       6    H4      21.695848   19.579122   22.339805 H          1 MOL1         0.0999
       7    H5      20.525840   20.879574   22.057109 H          1 MOL1         0.0999
       8    C2      19.728656   18.887973   21.748409 C.3        1 MOL1        -0.1308
       9    H6      19.848227   17.887263   22.184611 H          1 MOL1         0.1025
      10    H7      18.682264   19.183320   21.902761 H          1 MOL1         0.1025
      11    C3      20.035766   18.835278   20.235654 C.3        1 MOL1        -0.1243
      12    H8      21.084003   18.542912   20.080581 H          1 MOL1         0.1025
      13    H9      19.919395   19.837359   19.799057 H          1 MOL1         0.1025
      14    C4      19.111869   17.843291   19.496511 C.3        1 MOL1        -0.2258
      15    H10     19.345906   17.820598   18.424242 H          1 MOL1         0.1036
      16    H11     18.057509   18.129407   19.604537 H          1 MOL1         0.1036
      17    H12     19.231273   16.824751   19.888333 H          1 MOL1         0.1036
@<TRIPOS>BOND
    1     1     2    1
    2     1     3    1
    3     1     4    1
    4     1     5    1
    5     5     6    1
    6     5     7    1
    7     5     8    1
    8     8     9    1
    9     8    10    1
   10     8    11    1
   11    11    12    1
   12    11    13    1
   13    11    14    1
   14    14    15    1
   15    14    16    1
   16    14    17    1
@<TRIPOS>SUBSTRUCTURE
       1 MOL1            1 RESIDUE      1      MOL     
@<SCITEGIC>MOL_PROPERTY
VConf Rank
SciTegic.value.IntegerValue
343

@<SCITEGIC>MOL_PROPERTY
Conf_Id
SciTegic.value.IntegerValue
7

@<SCITEGIC>MOL_PROPERTY
Delta U+W
SciTegic.value.DoubleValue
0.000

@<SCITEGIC>MOL_PROPERTY
U+W
SciTegic.value.DoubleValue
-15.865

@<SCITEGIC>MOL_PROPERTY
Grad RMS
SciTegic.value.DoubleValue
0.000000

@<SCITEGIC>MOL_PROPERTY
U
SciTegic.value.DoubleValue
44.664

@<SCITEGIC>MOL_PROPERTY
W
SciTegic.value.DoubleValue
-60.529

@<SCITEGIC>MOL_PROPERTY
W(PB)
SciTegic.value.DoubleValue
-62.309

@<SCITEGIC>MOL_PROPERTY
W(SA)
SciTegic.value.DoubleValue
1.780

@<SCITEGIC>MOL_PROPERTY
Valence
SciTegic.value.DoubleValue
0.872

@<SCITEGIC>MOL_PROPERTY
Coulomb
SciTegic.value.DoubleValue
43.648

@<SCITEGIC>MOL_PROPERTY
VdW
SciTegic.value.DoubleValue
0.144

@<SCITEGIC>MOL_PROPERTY
VdW6
SciTegic.value.DoubleValue
-2.370

@<SCITEGIC>MOL_PROPERTY
VdW12
SciTegic.value.DoubleValue
2.515

@<SCITEGIC>MOL_PROPERTY
Bond
SciTegic.value.DoubleValue
0.080

@<SCITEGIC>MOL_PROPERTY
Angle
SciTegic.value.DoubleValue
0.376

@<SCITEGIC>MOL_PROPERTY
Pdih
SciTegic.value.DoubleValue
0.416

@<SCITEGIC>MOL_PROPERTY
Idih
SciTegic.value.DoubleValue
0.000

@<SCITEGIC>MOL_PROPERTY
Tether
SciTegic.value.DoubleValue
0.000

@<TRIPOS>MOLECULE
guest-1_confgen4.mol2 : confsearch ligand conformer 344
          17          16           1
SMALL
USER_CHARGES
 
@<TRIPOS>ATOM
       1    N1      20.323893   20.626021   19.795258 N.4        1 MOL1        -0.5891
       2    H1      19.750312   21.462831   19.938091 H          1 MOL1         0.3726
       3    H2      19.876855   20.077997   19.053993 H          1 MOL1         0.3726
       4    H3      21.225519   20.944438   19.425765 H          1 MOL1         0.3726
       5    C1      20.488724   19.825875   21.071954 C.3        1 MOL1         0.0314
       6    H4      20.996491   20.459116   21.804475 H          1 MOL1         0.0999
       7    H5      21.133707   18.971268   20.851768 H          1 MOL1         0.0999
       8    C2      19.151076   19.330938   21.654785 C.3        1 MOL1        -0.1308
       9    H6      18.495887   20.193607   21.834806 H          1 MOL1         0.1025
      10    H7      18.640324   18.696293   20.918412 H          1 MOL1         0.1025
      11    C3      19.329468   18.549785   22.977654 C.3        1 MOL1        -0.1243
      12    H8      18.338158   18.296825   23.379272 H          1 MOL1         0.1025
      13    H9      19.810631   19.194652   23.726527 H          1 MOL1         0.1025
      14    C4      20.150431   17.251062   22.806492 C.3        1 MOL1        -0.2258
      15    H10     19.693619   16.590645   22.057962 H          1 MOL1         0.1036
      16    H11     20.199766   16.699188   23.754126 H          1 MOL1         0.1036
      17    H12     21.180521   17.463232   22.493460 H          1 MOL1         0.1036
@<TRIPOS>BOND
    1     1     2    1
    2     1     3    1
    3     1     4    1
    4     1     5    1
    5     5     6    1
    6     5     7    1
    7     5     8    1
    8     8     9    1
    9     8    10    1
   10     8    11    1
   11    11    12    1
   12    11    13    1
   13    11    14    1
   14    14    15    1
   15    14    16    1
   16    14    17    1
@<TRIPOS>SUBSTRUCTURE
       1 MOL1            1 RESIDUE      1      MOL     
@<SCITEGIC>MOL_PROPERTY
VConf Rank
SciTegic.value.IntegerValue
344

@<SCITEGIC>MOL_PROPERTY
Conf_Id
SciTegic.value.IntegerValue
36

@<SCITEGIC>MOL_PROPERTY
Delta U+W
SciTegic.value.DoubleValue
0.275

@<SCITEGIC>MOL_PROPERTY
U+W
SciTegic.value.DoubleValue
-15.590

@<SCITEGIC>MOL_PROPERTY
Grad RMS
SciTegic.value.DoubleValue
0.000000

@<SCITEGIC>MOL_PROPERTY
U
SciTegic.value.DoubleValue
45.174

@<SCITEGIC>MOL_PROPERTY
W
SciTegic.value.DoubleValue
-60.765

@<SCITEGIC>MOL_PROPERTY
W(PB)
SciTegic.value.DoubleValue
-62.518

@<SCITEGIC>MOL_PROPERTY
W(SA)
SciTegic.value.DoubleValue
1.754

@<SCITEGIC>MOL_PROPERTY
Valence
SciTegic.value.DoubleValue
1.161

@<SCITEGIC>MOL_PROPERTY
Coulomb
SciTegic.value.DoubleValue
43.789

@<SCITEGIC>MOL_PROPERTY
VdW
SciTegic.value.DoubleValue
0.224

@<SCITEGIC>MOL_PROPERTY
VdW6
SciTegic.value.DoubleValue
-2.897

@<SCITEGIC>MOL_PROPERTY
VdW12
SciTegic.value.DoubleValue
3.121

@<SCITEGIC>MOL_PROPERTY
Bond
SciTegic.value.DoubleValue
0.100

@<SCITEGIC>MOL_PROPERTY
Angle
SciTegic.value.DoubleValue
0.500

@<SCITEGIC>MOL_PROPERTY
Pdih
SciTegic.value.DoubleValue
0.561

@<SCITEGIC>MOL_PROPERTY
Idih
SciTegic.value.DoubleValue
0.000

@<SCITEGIC>MOL_PROPERTY
Tether
SciTegic.value.DoubleValue
0.000

@<TRIPOS>MOLECULE
guest-1_confgen4.mol2 : confsearch ligand conformer 345
          17          16           1
SMALL
USER_CHARGES
 
@<TRIPOS>ATOM
       1    N1      18.367407   18.027997   21.343328 N.4        1 MOL1        -0.5891
       2    H1      18.171891   19.001705   21.589320 H          1 MOL1         0.3726
       3    H2      18.233752   17.470127   22.192089 H          1 MOL1         0.3726
       4    H3      17.645879   17.733495   20.677378 H          1 MOL1         0.3726
       5    C1      19.762931   17.861386   20.773429 C.3        1 MOL1         0.0314
       6    H4      19.825681   18.421916   19.836855 H          1 MOL1         0.0999
       7    H5      19.888945   16.800382   20.541206 H          1 MOL1         0.0999
       8    C2      20.893951   18.305585   21.724793 C.3        1 MOL1        -0.1308
       9    H6      20.695528   17.939551   22.740852 H          1 MOL1         0.1025
      10    H7      21.818282   17.808999   21.400971 H          1 MOL1         0.1025
      11    C3      21.155187   19.833365   21.743524 C.3        1 MOL1        -0.1243
      12    H8      21.414556   20.176393   20.732050 H          1 MOL1         0.1025
      13    H9      22.040591   20.025393   22.365757 H          1 MOL1         0.1025
      14    C4      19.979271   20.676133   22.287442 C.3        1 MOL1        -0.2258
      15    H10     19.134268   20.685645   21.589191 H          1 MOL1         0.1036
      16    H11     20.291962   21.718892   22.428984 H          1 MOL1         0.1036
      17    H12     19.633116   20.297754   23.258091 H          1 MOL1         0.1036
@<TRIPOS>BOND
    1     1     2    1
    2     1     3    1
    3     1     4    1
    4     1     5    1
    5     5     6    1
    6     5     7    1
    7     5     8    1
    8     8     9    1
    9     8    10    1
   10     8    11    1
   11    11    12    1
   12    11    13    1
   13    11    14    1
   14    14    15    1
   15    14    16    1
   16    14    17    1
@<TRIPOS>SUBSTRUCTURE
       1 MOL1            1 RESIDUE      1      MOL     
@<SCITEGIC>MOL_PROPERTY
VConf Rank
SciTegic.value.IntegerValue
345

@<SCITEGIC>MOL_PROPERTY
Conf_Id
SciTegic.value.IntegerValue
19

@<SCITEGIC>MOL_PROPERTY
Delta U+W
SciTegic.value.DoubleValue
2.662

@<SCITEGIC>MOL_PROPERTY
U+W
SciTegic.value.DoubleValue
-13.203

@<SCITEGIC>MOL_PROPERTY
Grad RMS
SciTegic.value.DoubleValue
0.000000

@<SCITEGIC>MOL_PROPERTY
U
SciTegic.value.DoubleValue
47.423

@<SCITEGIC>MOL_PROPERTY
W
SciTegic.value.DoubleValue
-60.626

@<SCITEGIC>MOL_PROPERTY
W(PB)
SciTegic.value.DoubleValue
-62.328

@<SCITEGIC>MOL_PROPERTY
W(SA)
SciTegic.value.DoubleValue
1.702

@<SCITEGIC>MOL_PROPERTY
Valence
SciTegic.value.DoubleValue
2.414

@<SCITEGIC>MOL_PROPERTY
Coulomb
SciTegic.value.DoubleValue
44.831

@<SCITEGIC>MOL_PROPERTY
VdW
SciTegic.value.DoubleValue
0.178

@<SCITEGIC>MOL_PROPERTY
VdW6
SciTegic.value.DoubleValue
-3.743

@<SCITEGIC>MOL_PROPERTY
VdW12
SciTegic.value.DoubleValue
3.921

@<SCITEGIC>MOL_PROPERTY
Bond
SciTegic.value.DoubleValue
0.138

@<SCITEGIC>MOL_PROPERTY
Angle
SciTegic.value.DoubleValue
0.941

@<SCITEGIC>MOL_PROPERTY
Pdih
SciTegic.value.DoubleValue
1.335

@<SCITEGIC>MOL_PROPERTY
Idih
SciTegic.value.DoubleValue
0.000

@<SCITEGIC>MOL_PROPERTY
Tether
SciTegic.value.DoubleValue
0.000

@<TRIPOS>MOLECULE
guest-1_confgen4.mol2 : confsearch ligand conformer 346
          17          16           1
SMALL
USER_CHARGES
 
@<TRIPOS>ATOM
       1    N1      21.386212   19.780746   22.419429 N.4        1 MOL1        -0.5891
       2    H1      21.919093   20.630101   22.632637 H          1 MOL1         0.3726
       3    H2      21.988708   18.985695   22.652610 H          1 MOL1         0.3726
       4    H3      20.590632   19.754123   23.062226 H          1 MOL1         0.3726
       5    C1      20.939842   19.743618   20.970493 C.3        1 MOL1         0.0314
       6    H4      21.844063   19.773235   20.356455 H          1 MOL1         0.0999
       7    H5      20.359986   20.646638   20.761632 H          1 MOL1         0.0999
       8    C2      20.115958   18.494711   20.592266 C.3        1 MOL1        -0.1308
       9    H6      20.174753   18.372125   19.502604 H          1 MOL1         0.1025
      10    H7      20.577815   17.595850   21.021761 H          1 MOL1         0.1025
      11    C3      18.617892   18.570371   20.983135 C.3        1 MOL1        -0.1243
      12    H8      18.109139   17.684881   20.576847 H          1 MOL1         0.1025
      13    H9      18.152198   19.438540   20.495864 H          1 MOL1         0.1025
      14    C4      18.356964   18.632738   22.505274 C.3        1 MOL1        -0.2258
      15    H10     18.888563   17.830885   23.034033 H          1 MOL1         0.1036
      16    H11     17.285419   18.514883   22.712775 H          1 MOL1         0.1036
      17    H12     18.661975   19.597706   22.926563 H          1 MOL1         0.1036
@<TRIPOS>BOND
    1     1     2    1
    2     1     3    1
    3     1     4    1
    4     1     5    1
    5     5     6    1
    6     5     7    1
    7     5     8    1
    8     8     9    1
    9     8    10    1
   10     8    11    1
   11    11    12    1
   12    11    13    1
   13    11    14    1
   14    14    15    1
   15    14    16    1
   16    14    17    1
@<TRIPOS>SUBSTRUCTURE
       1 MOL1            1 RESIDUE      1      MOL     
@<SCITEGIC>MOL_PROPERTY
VConf Rank
SciTegic.value.IntegerValue
346

@<SCITEGIC>MOL_PROPERTY
Conf_Id
SciTegic.value.IntegerValue
44

@<SCITEGIC>MOL_PROPERTY
Delta U+W
SciTegic.value.DoubleValue
2.712

@<SCITEGIC>MOL_PROPERTY
U+W
SciTegic.value.DoubleValue
-13.153

@<SCITEGIC>MOL_PROPERTY
Grad RMS
SciTegic.value.DoubleValue
0.000000

@<SCITEGIC>MOL_PROPERTY
U
SciTegic.value.DoubleValue
47.423

@<SCITEGIC>MOL_PROPERTY
W
SciTegic.value.DoubleValue
-60.576

@<SCITEGIC>MOL_PROPERTY
W(PB)
SciTegic.value.DoubleValue
-62.262

@<SCITEGIC>MOL_PROPERTY
W(SA)
SciTegic.value.DoubleValue
1.687

@<SCITEGIC>MOL_PROPERTY
Valence
SciTegic.value.DoubleValue
2.414

@<SCITEGIC>MOL_PROPERTY
Coulomb
SciTegic.value.DoubleValue
44.831

@<SCITEGIC>MOL_PROPERTY
VdW
SciTegic.value.DoubleValue
0.178

@<SCITEGIC>MOL_PROPERTY
VdW6
SciTegic.value.DoubleValue
-3.743

@<SCITEGIC>MOL_PROPERTY
VdW12
SciTegic.value.DoubleValue
3.922

@<SCITEGIC>MOL_PROPERTY
Bond
SciTegic.value.DoubleValue
0.138

@<SCITEGIC>MOL_PROPERTY
Angle
SciTegic.value.DoubleValue
0.941

@<SCITEGIC>MOL_PROPERTY
Pdih
SciTegic.value.DoubleValue
1.335

@<SCITEGIC>MOL_PROPERTY
Idih
SciTegic.value.DoubleValue
0.000

@<SCITEGIC>MOL_PROPERTY
Tether
SciTegic.value.DoubleValue
0.000

@<TRIPOS>MOLECULE
guest-1_confgen4.mol2 : confsearch ligand conformer 347
          17          16           1
SMALL
USER_CHARGES
 
@<TRIPOS>ATOM
       1    N1      18.740081   18.075822   22.875601 N.4        1 MOL1        -0.5891
       2    H1      18.297265   18.977837   22.678800 H          1 MOL1         0.3726
       3    H2      19.105458   18.119993   23.831597 H          1 MOL1         0.3726
       4    H3      17.996253   17.370569   22.873577 H          1 MOL1         0.3726
       5    C1      19.827045   17.752025   21.868863 C.3        1 MOL1         0.0314
       6    H4      19.366224   17.691065   20.879554 H          1 MOL1         0.0999
       7    H5      20.227046   16.765033   22.116624 H          1 MOL1         0.0999
       8    C2      20.978620   18.778271   21.844042 C.3        1 MOL1        -0.1308
       9    H6      21.460999   18.802599   22.830179 H          1 MOL1         0.1025
      10    H7      21.744115   18.430196   21.137879 H          1 MOL1         0.1025
      11    C3      20.537734   20.210568   21.451994 C.3        1 MOL1        -0.1243
      12    H8      21.416552   20.870135   21.475547 H          1 MOL1         0.1025
      13    H9      19.839733   20.609040   22.200772 H          1 MOL1         0.1025
      14    C4      19.893084   20.282894   20.048786 C.3        1 MOL1        -0.2258
      15    H10     20.573036   19.890525   19.281466 H          1 MOL1         0.1036
      16    H11     19.656925   21.322363   19.786677 H          1 MOL1         0.1036
      17    H12     18.958473   19.709827   20.003590 H          1 MOL1         0.1036
@<TRIPOS>BOND
    1     1     2    1
    2     1     3    1
    3     1     4    1
    4     1     5    1
    5     5     6    1
    6     5     7    1
    7     5     8    1
    8     8     9    1
    9     8    10    1
   10     8    11    1
   11    11    12    1
   12    11    13    1
   13    11    14    1
   14    14    15    1
   15    14    16    1
   16    14    17    1
@<TRIPOS>SUBSTRUCTURE
       1 MOL1            1 RESIDUE      1      MOL     
@<SCITEGIC>MOL_PROPERTY
VConf Rank
SciTegic.value.IntegerValue
347

@<SCITEGIC>MOL_PROPERTY
Conf_Id
SciTegic.value.IntegerValue
1

@<SCITEGIC>MOL_PROPERTY
Delta U+W
SciTegic.value.DoubleValue
0.685

@<SCITEGIC>MOL_PROPERTY
U+W
SciTegic.value.DoubleValue
-15.179

@<SCITEGIC>MOL_PROPERTY
Grad RMS
SciTegic.value.DoubleValue
0.000000

@<SCITEGIC>MOL_PROPERTY
U
SciTegic.value.DoubleValue
45.697

@<SCITEGIC>MOL_PROPERTY
W
SciTegic.value.DoubleValue
-60.876

@<SCITEGIC>MOL_PROPERTY
W(PB)
SciTegic.value.DoubleValue
-62.586

@<SCITEGIC>MOL_PROPERTY
W(SA)
SciTegic.value.DoubleValue
1.710

@<SCITEGIC>MOL_PROPERTY
Valence
SciTegic.value.DoubleValue
1.263

@<SCITEGIC>MOL_PROPERTY
Coulomb
SciTegic.value.DoubleValue
44.179

@<SCITEGIC>MOL_PROPERTY
VdW
SciTegic.value.DoubleValue
0.255

@<SCITEGIC>MOL_PROPERTY
VdW6
SciTegic.value.DoubleValue
-3.552

@<SCITEGIC>MOL_PROPERTY
VdW12
SciTegic.value.DoubleValue
3.807

@<SCITEGIC>MOL_PROPERTY
Bond
SciTegic.value.DoubleValue
0.125

@<SCITEGIC>MOL_PROPERTY
Angle
SciTegic.value.DoubleValue
0.616

@<SCITEGIC>MOL_PROPERTY
Pdih
SciTegic.value.DoubleValue
0.521

@<SCITEGIC>MOL_PROPERTY
Idih
SciTegic.value.DoubleValue
0.000

@<SCITEGIC>MOL_PROPERTY
Tether
SciTegic.value.DoubleValue
0.000

@<TRIPOS>MOLECULE
guest-1_confgen4.mol2 : confsearch ligand conformer 348
          17          16           1
SMALL
USER_CHARGES
 
@<TRIPOS>ATOM
       1    N1      17.960890   19.266670   21.428753 N.4        1 MOL1        -0.5891
       2    H1      17.564197   18.628188   20.732798 H          1 MOL1         0.3726
       3    H2      18.402321   20.035891   20.917005 H          1 MOL1         0.3726
       4    H3      17.173339   19.666422   21.948973 H          1 MOL1         0.3726
       5    C1      18.944016   18.564463   22.345392 C.3        1 MOL1         0.0314
       6    H4      18.398549   17.784792   22.884017 H          1 MOL1         0.0999
       7    H5      19.304476   19.291690   23.077521 H          1 MOL1         0.0999
       8    C2      20.141855   17.932388   21.606756 C.3        1 MOL1        -0.1308
       9    H6      20.761086   17.395020   22.337229 H          1 MOL1         0.1025
      10    H7      19.772313   17.174643   20.903187 H          1 MOL1         0.1025
      11    C3      21.023113   18.954073   20.845767 C.3        1 MOL1        -0.1243
      12    H8      20.440445   19.435373   20.048584 H          1 MOL1         0.1025
      13    H9      21.836878   18.413518   20.342288 H          1 MOL1         0.1025
      14    C4      21.633192   20.033546   21.768990 C.3        1 MOL1        -0.2258
      15    H10     22.300144   20.694389   21.200282 H          1 MOL1         0.1036
      16    H11     22.222287   19.576589   22.574734 H          1 MOL1         0.1036
      17    H12     20.856885   20.660385   22.225465 H          1 MOL1         0.1036
@<TRIPOS>BOND
    1     1     2    1
    2     1     3    1
    3     1     4    1
    4     1     5    1
    5     5     6    1
    6     5     7    1
    7     5     8    1
    8     8     9    1
    9     8    10    1
   10     8    11    1
   11    11    12    1
   12    11    13    1
   13    11    14    1
   14    14    15    1
   15    14    16    1
   16    14    17    1
@<TRIPOS>SUBSTRUCTURE
       1 MOL1            1 RESIDUE      1      MOL     
@<SCITEGIC>MOL_PROPERTY
VConf Rank
SciTegic.value.IntegerValue
348

@<SCITEGIC>MOL_PROPERTY
Conf_Id
SciTegic.value.IntegerValue
43

@<SCITEGIC>MOL_PROPERTY
Delta U+W
SciTegic.value.DoubleValue
0.642

@<SCITEGIC>MOL_PROPERTY
U+W
SciTegic.value.DoubleValue
-15.222

@<SCITEGIC>MOL_PROPERTY
Grad RMS
SciTegic.value.DoubleValue
0.000000

@<SCITEGIC>MOL_PROPERTY
U
SciTegic.value.DoubleValue
45.697

@<SCITEGIC>MOL_PROPERTY
W
SciTegic.value.DoubleValue
-60.919

@<SCITEGIC>MOL_PROPERTY
W(PB)
SciTegic.value.DoubleValue
-62.631

@<SCITEGIC>MOL_PROPERTY
W(SA)
SciTegic.value.DoubleValue
1.712

@<SCITEGIC>MOL_PROPERTY
Valence
SciTegic.value.DoubleValue
1.262

@<SCITEGIC>MOL_PROPERTY
Coulomb
SciTegic.value.DoubleValue
44.179

@<SCITEGIC>MOL_PROPERTY
VdW
SciTegic.value.DoubleValue
0.255

@<SCITEGIC>MOL_PROPERTY
VdW6
SciTegic.value.DoubleValue
-3.552

@<SCITEGIC>MOL_PROPERTY
VdW12
SciTegic.value.DoubleValue
3.807

@<SCITEGIC>MOL_PROPERTY
Bond
SciTegic.value.DoubleValue
0.125

@<SCITEGIC>MOL_PROPERTY
Angle
SciTegic.value.DoubleValue
0.616

@<SCITEGIC>MOL_PROPERTY
Pdih
SciTegic.value.DoubleValue
0.521

@<SCITEGIC>MOL_PROPERTY
Idih
SciTegic.value.DoubleValue
0.000

@<SCITEGIC>MOL_PROPERTY
Tether
SciTegic.value.DoubleValue
0.000

@<TRIPOS>MOLECULE
guest-1_confgen4.mol2 : confsearch ligand conformer 349
          17          16           1
SMALL
USER_CHARGES
 
@<TRIPOS>ATOM
       1    N1      18.370942   20.523306   22.993895 N.4        1 MOL1        -0.5891
       2    H1      17.594955   20.550761   22.325475 H          1 MOL1         0.3726
       3    H2      18.883502   21.405005   22.895987 H          1 MOL1         0.3726
       4    H3      17.955014   20.524932   23.930863 H          1 MOL1         0.3726
       5    C1      19.265473   19.319185   22.776492 C.3        1 MOL1         0.0314
       6    H4      18.662615   18.419366   22.926198 H          1 MOL1         0.0999
       7    H5      20.048201   19.337929   23.539716 H          1 MOL1         0.0999
       8    C2      19.907527   19.285022   21.377614 C.3        1 MOL1        -0.1308
       9    H6      19.118705   19.281908   20.613585 H          1 MOL1         0.1025
      10    H7      20.499636   20.197229   21.225049 H          1 MOL1         0.1025
      11    C3      20.809518   18.044187   21.197997 C.3        1 MOL1        -0.1243
      12    H8      20.218111   17.130804   21.353869 H          1 MOL1         0.1025
      13    H9      21.597397   18.045039   21.964530 H          1 MOL1         0.1025
      14    C4      21.457039   18.003114   19.796932 C.3        1 MOL1        -0.2258
      15    H10     22.093216   17.114971   19.689564 H          1 MOL1         0.1036
      16    H11     22.083370   18.888139   19.624750 H          1 MOL1         0.1036
      17    H12     20.693185   17.966750   19.009269 H          1 MOL1         0.1036
@<TRIPOS>BOND
    1     1     2    1
    2     1     3    1
    3     1     4    1
    4     1     5    1
    5     5     6    1
    6     5     7    1
    7     5     8    1
    8     8     9    1
    9     8    10    1
   10     8    11    1
   11    11    12    1
   12    11    13    1
   13    11    14    1
   14    14    15    1
   15    14    16    1
   16    14    17    1
@<TRIPOS>SUBSTRUCTURE
       1 MOL1            1 RESIDUE      1      MOL     
@<SCITEGIC>MOL_PROPERTY
VConf Rank
SciTegic.value.IntegerValue
349

@<SCITEGIC>MOL_PROPERTY
Conf_Id
SciTegic.value.IntegerValue
7

@<SCITEGIC>MOL_PROPERTY
Delta U+W
SciTegic.value.DoubleValue
0.000

@<SCITEGIC>MOL_PROPERTY
U+W
SciTegic.value.DoubleValue
-15.865

@<SCITEGIC>MOL_PROPERTY
Grad RMS
SciTegic.value.DoubleValue
0.000000

@<SCITEGIC>MOL_PROPERTY
U
SciTegic.value.DoubleValue
44.664

@<SCITEGIC>MOL_PROPERTY
W
SciTegic.value.DoubleValue
-60.529

@<SCITEGIC>MOL_PROPERTY
W(PB)
SciTegic.value.DoubleValue
-62.309

@<SCITEGIC>MOL_PROPERTY
W(SA)
SciTegic.value.DoubleValue
1.780

@<SCITEGIC>MOL_PROPERTY
Valence
SciTegic.value.DoubleValue
0.872

@<SCITEGIC>MOL_PROPERTY
Coulomb
SciTegic.value.DoubleValue
43.648

@<SCITEGIC>MOL_PROPERTY
VdW
SciTegic.value.DoubleValue
0.144

@<SCITEGIC>MOL_PROPERTY
VdW6
SciTegic.value.DoubleValue
-2.370

@<SCITEGIC>MOL_PROPERTY
VdW12
SciTegic.value.DoubleValue
2.515

@<SCITEGIC>MOL_PROPERTY
Bond
SciTegic.value.DoubleValue
0.080

@<SCITEGIC>MOL_PROPERTY
Angle
SciTegic.value.DoubleValue
0.376

@<SCITEGIC>MOL_PROPERTY
Pdih
SciTegic.value.DoubleValue
0.416

@<SCITEGIC>MOL_PROPERTY
Idih
SciTegic.value.DoubleValue
0.000

@<SCITEGIC>MOL_PROPERTY
Tether
SciTegic.value.DoubleValue
0.000

@<TRIPOS>MOLECULE
guest-1_confgen4.mol2 : confsearch ligand conformer 350
          17          16           1
SMALL
USER_CHARGES
 
@<TRIPOS>ATOM
       1    N1      21.410454   18.684284   23.480934 N.4        1 MOL1        -0.5891
       2    H1      21.401840   19.504089   24.095339 H          1 MOL1         0.3726
       3    H2      22.294296   18.705791   22.963240 H          1 MOL1         0.3726
       4    H3      21.442759   17.859181   24.088391 H          1 MOL1         0.3726
       5    C1      20.210798   18.656001   22.554985 C.3        1 MOL1         0.0314
       6    H4      19.309307   18.603308   23.171382 H          1 MOL1         0.0999
       7    H5      20.270422   17.743664   21.955883 H          1 MOL1         0.0999
       8    C2      20.131821   19.883154   21.626644 C.3        1 MOL1        -0.1308
       9    H6      20.112805   20.795637   22.237292 H          1 MOL1         0.1025
      10    H7      21.038016   19.937005   21.008746 H          1 MOL1         0.1025
      11    C3      18.882849   19.861790   20.714714 C.3        1 MOL1        -0.1243
      12    H8      18.844683   20.797676   20.139700 H          1 MOL1         0.1025
      13    H9      17.973748   19.841519   21.332215 H          1 MOL1         0.1025
      14    C4      18.871093   18.666770   19.734027 C.3        1 MOL1        -0.2258
      15    H10     19.773077   18.660266   19.108320 H          1 MOL1         0.1036
      16    H11     18.001345   18.724935   19.066822 H          1 MOL1         0.1036
      17    H12     18.816067   17.708703   20.266165 H          1 MOL1         0.1036
@<TRIPOS>BOND
    1     1     2    1
    2     1     3    1
    3     1     4    1
    4     1     5    1
    5     5     6    1
    6     5     7    1
    7     5     8    1
    8     8     9    1
    9     8    10    1
   10     8    11    1
   11    11    12    1
   12    11    13    1
   13    11    14    1
   14    14    15    1
   15    14    16    1
   16    14    17    1
@<TRIPOS>SUBSTRUCTURE
       1 MOL1            1 RESIDUE      1      MOL     
@<SCITEGIC>MOL_PROPERTY
VConf Rank
SciTegic.value.IntegerValue
350

@<SCITEGIC>MOL_PROPERTY
Conf_Id
SciTegic.value.IntegerValue
36

@<SCITEGIC>MOL_PROPERTY
Delta U+W
SciTegic.value.DoubleValue
0.275

@<SCITEGIC>MOL_PROPERTY
U+W
SciTegic.value.DoubleValue
-15.590

@<SCITEGIC>MOL_PROPERTY
Grad RMS
SciTegic.value.DoubleValue
0.000000

@<SCITEGIC>MOL_PROPERTY
U
SciTegic.value.DoubleValue
45.174

@<SCITEGIC>MOL_PROPERTY
W
SciTegic.value.DoubleValue
-60.765

@<SCITEGIC>MOL_PROPERTY
W(PB)
SciTegic.value.DoubleValue
-62.518

@<SCITEGIC>MOL_PROPERTY
W(SA)
SciTegic.value.DoubleValue
1.754

@<SCITEGIC>MOL_PROPERTY
Valence
SciTegic.value.DoubleValue
1.161

@<SCITEGIC>MOL_PROPERTY
Coulomb
SciTegic.value.DoubleValue
43.789

@<SCITEGIC>MOL_PROPERTY
VdW
SciTegic.value.DoubleValue
0.224

@<SCITEGIC>MOL_PROPERTY
VdW6
SciTegic.value.DoubleValue
-2.897

@<SCITEGIC>MOL_PROPERTY
VdW12
SciTegic.value.DoubleValue
3.121

@<SCITEGIC>MOL_PROPERTY
Bond
SciTegic.value.DoubleValue
0.100

@<SCITEGIC>MOL_PROPERTY
Angle
SciTegic.value.DoubleValue
0.500

@<SCITEGIC>MOL_PROPERTY
Pdih
SciTegic.value.DoubleValue
0.561

@<SCITEGIC>MOL_PROPERTY
Idih
SciTegic.value.DoubleValue
0.000

@<SCITEGIC>MOL_PROPERTY
Tether
SciTegic.value.DoubleValue
0.000

@<TRIPOS>MOLECULE
guest-1_confgen4.mol2 : confsearch ligand conformer 351
          17          16           1
SMALL
USER_CHARGES
 
@<TRIPOS>ATOM
       1    N1      20.544548   20.459561   22.560777 N.4        1 MOL1        -0.5891
       2    H1      19.613454   20.627653   22.171350 H          1 MOL1         0.3726
       3    H2      21.216346   20.936838   21.952194 H          1 MOL1         0.3726
       4    H3      20.581320   20.930117   23.470748 H          1 MOL1         0.3726
       5    C1      20.845313   18.977832   22.679308 C.3        1 MOL1         0.0314
       6    H4      20.142460   18.535767   23.390560 H          1 MOL1         0.0999
       7    H5      21.851230   18.888237   23.098403 H          1 MOL1         0.0999
       8    C2      20.787597   18.209778   21.342006 C.3        1 MOL1        -0.1308
       9    H6      21.293134   18.786015   20.555805 H          1 MOL1         0.1025
      10    H7      21.370281   17.286602   21.460632 H          1 MOL1         0.1025
      11    C3      19.358712   17.816368   20.887889 C.3        1 MOL1        -0.1243
      12    H8      18.886927   17.187296   21.655814 H          1 MOL1         0.1025
      13    H9      19.441717   17.188387   19.989702 H          1 MOL1         0.1025
      14    C4      18.437461   19.015151   20.566799 C.3        1 MOL1        -0.2258
      15    H10     18.152623   19.558366   21.475347 H          1 MOL1         0.1036
      16    H11     17.509282   18.666256   20.095724 H          1 MOL1         0.1036
      17    H12     18.920794   19.714493   19.872202 H          1 MOL1         0.1036
@<TRIPOS>BOND
    1     1     2    1
    2     1     3    1
    3     1     4    1
    4     1     5    1
    5     5     6    1
    6     5     7    1
    7     5     8    1
    8     8     9    1
    9     8    10    1
   10     8    11    1
   11    11    12    1
   12    11    13    1
   13    11    14    1
   14    14    15    1
   15    14    16    1
   16    14    17    1
@<TRIPOS>SUBSTRUCTURE
       1 MOL1            1 RESIDUE      1      MOL     
@<SCITEGIC>MOL_PROPERTY
VConf Rank
SciTegic.value.IntegerValue
351

@<SCITEGIC>MOL_PROPERTY
Conf_Id
SciTegic.value.IntegerValue
19

@<SCITEGIC>MOL_PROPERTY
Delta U+W
SciTegic.value.DoubleValue
2.662

@<SCITEGIC>MOL_PROPERTY
U+W
SciTegic.value.DoubleValue
-13.203

@<SCITEGIC>MOL_PROPERTY
Grad RMS
SciTegic.value.DoubleValue
0.000000

@<SCITEGIC>MOL_PROPERTY
U
SciTegic.value.DoubleValue
47.423

@<SCITEGIC>MOL_PROPERTY
W
SciTegic.value.DoubleValue
-60.626

@<SCITEGIC>MOL_PROPERTY
W(PB)
SciTegic.value.DoubleValue
-62.328

@<SCITEGIC>MOL_PROPERTY
W(SA)
SciTegic.value.DoubleValue
1.702

@<SCITEGIC>MOL_PROPERTY
Valence
SciTegic.value.DoubleValue
2.414

@<SCITEGIC>MOL_PROPERTY
Coulomb
SciTegic.value.DoubleValue
44.831

@<SCITEGIC>MOL_PROPERTY
VdW
SciTegic.value.DoubleValue
0.178

@<SCITEGIC>MOL_PROPERTY
VdW6
SciTegic.value.DoubleValue
-3.743

@<SCITEGIC>MOL_PROPERTY
VdW12
SciTegic.value.DoubleValue
3.921

@<SCITEGIC>MOL_PROPERTY
Bond
SciTegic.value.DoubleValue
0.138

@<SCITEGIC>MOL_PROPERTY
Angle
SciTegic.value.DoubleValue
0.941

@<SCITEGIC>MOL_PROPERTY
Pdih
SciTegic.value.DoubleValue
1.335

@<SCITEGIC>MOL_PROPERTY
Idih
SciTegic.value.DoubleValue
0.000

@<SCITEGIC>MOL_PROPERTY
Tether
SciTegic.value.DoubleValue
0.000

@<TRIPOS>MOLECULE
guest-1_confgen4.mol2 : confsearch ligand conformer 352
          17          16           1
SMALL
USER_CHARGES
 
@<TRIPOS>ATOM
       1    N1      18.610565   19.709644   22.792966 N.4        1 MOL1        -0.5891
       2    H1      18.267890   19.710305   23.759091 H          1 MOL1         0.3726
       3    H2      17.888959   20.159338   22.221529 H          1 MOL1         0.3726
       4    H3      19.436145   20.313366   22.765014 H          1 MOL1         0.3726
       5    C1      18.922514   18.307658   22.305971 C.3        1 MOL1         0.0314
       6    H4      17.993543   17.734133   22.366132 H          1 MOL1         0.0999
       7    H5      19.644459   17.854024   22.990305 H          1 MOL1         0.0999
       8    C2      19.460587   18.243026   20.861010 C.3        1 MOL1        -0.1308
       9    H6      19.291229   17.224988   20.485826 H          1 MOL1         0.1025
      10    H7      18.872811   18.905021   20.211385 H          1 MOL1         0.1025
      11    C3      20.972453   18.556179   20.723534 C.3        1 MOL1        -0.1243
      12    H8      21.268967   18.379286   19.680088 H          1 MOL1         0.1025
      13    H9      21.553456   17.846293   21.328941 H          1 MOL1         0.1025
      14    C4      21.363279   20.001284   21.107990 C.3        1 MOL1        -0.2258
      15    H10     20.733765   20.735918   20.589167 H          1 MOL1         0.1036
      16    H11     22.406163   20.200439   20.828910 H          1 MOL1         0.1036
      17    H12     21.282429   20.165945   22.188744 H          1 MOL1         0.1036
@<TRIPOS>BOND
    1     1     2    1
    2     1     3    1
    3     1     4    1
    4     1     5    1
    5     5     6    1
    6     5     7    1
    7     5     8    1
    8     8     9    1
    9     8    10    1
   10     8    11    1
   11    11    12    1
   12    11    13    1
   13    11    14    1
   14    14    15    1
   15    14    16    1
   16    14    17    1
@<TRIPOS>SUBSTRUCTURE
       1 MOL1            1 RESIDUE      1      MOL     
@<SCITEGIC>MOL_PROPERTY
VConf Rank
SciTegic.value.IntegerValue
352

@<SCITEGIC>MOL_PROPERTY
Conf_Id
SciTegic.value.IntegerValue
44

@<SCITEGIC>MOL_PROPERTY
Delta U+W
SciTegic.value.DoubleValue
2.712

@<SCITEGIC>MOL_PROPERTY
U+W
SciTegic.value.DoubleValue
-13.153

@<SCITEGIC>MOL_PROPERTY
Grad RMS
SciTegic.value.DoubleValue
0.000000

@<SCITEGIC>MOL_PROPERTY
U
SciTegic.value.DoubleValue
47.423

@<SCITEGIC>MOL_PROPERTY
W
SciTegic.value.DoubleValue
-60.576

@<SCITEGIC>MOL_PROPERTY
W(PB)
SciTegic.value.DoubleValue
-62.262

@<SCITEGIC>MOL_PROPERTY
W(SA)
SciTegic.value.DoubleValue
1.687

@<SCITEGIC>MOL_PROPERTY
Valence
SciTegic.value.DoubleValue
2.414

@<SCITEGIC>MOL_PROPERTY
Coulomb
SciTegic.value.DoubleValue
44.831

@<SCITEGIC>MOL_PROPERTY
VdW
SciTegic.value.DoubleValue
0.178

@<SCITEGIC>MOL_PROPERTY
VdW6
SciTegic.value.DoubleValue
-3.743

@<SCITEGIC>MOL_PROPERTY
VdW12
SciTegic.value.DoubleValue
3.922

@<SCITEGIC>MOL_PROPERTY
Bond
SciTegic.value.DoubleValue
0.138

@<SCITEGIC>MOL_PROPERTY
Angle
SciTegic.value.DoubleValue
0.941

@<SCITEGIC>MOL_PROPERTY
Pdih
SciTegic.value.DoubleValue
1.335

@<SCITEGIC>MOL_PROPERTY
Idih
SciTegic.value.DoubleValue
0.000

@<SCITEGIC>MOL_PROPERTY
Tether
SciTegic.value.DoubleValue
0.000

@<TRIPOS>MOLECULE
guest-1_confgen4.mol2 : confsearch ligand conformer 353
          17          16           1
SMALL
USER_CHARGES
 
@<TRIPOS>ATOM
       1    N1      18.691895   18.282770   22.966316 N.4        1 MOL1        -0.5891
       2    H1      18.258226   18.124510   22.052351 H          1 MOL1         0.3726
       3    H2      18.152293   19.016938   23.434510 H          1 MOL1         0.3726
       4    H3      18.562339   17.424552   23.511608 H          1 MOL1         0.3726
       5    C1      20.156852   18.652796   22.836551 C.3        1 MOL1         0.0314
       6    H4      20.676611   17.818602   22.358246 H          1 MOL1         0.0999
       7    H5      20.561554   18.769044   23.845630 H          1 MOL1         0.0999
       8    C2      20.403458   19.947692   22.035083 C.3        1 MOL1        -0.1308
       9    H6      19.911630   20.786490   22.545251 H          1 MOL1         0.1025
      10    H7      21.478763   20.169809   22.048747 H          1 MOL1         0.1025
      11    C3      19.915644   19.882074   20.566312 C.3        1 MOL1        -0.1243
      12    H8      20.118971   20.847747   20.082536 H          1 MOL1         0.1025
      13    H9      18.825355   19.751665   20.536016 H          1 MOL1         0.1025
      14    C4      20.597168   18.758913   19.751554 C.3        1 MOL1        -0.2258
      15    H10     21.689379   18.868185   19.765837 H          1 MOL1         0.1036
      16    H11     20.271330   18.791293   18.703819 H          1 MOL1         0.1036
      17    H12     20.347175   17.765682   20.145183 H          1 MOL1         0.1036
@<TRIPOS>BOND
    1     1     2    1
    2     1     3    1
    3     1     4    1
    4     1     5    1
    5     5     6    1
    6     5     7    1
    7     5     8    1
    8     8     9    1
    9     8    10    1
   10     8    11    1
   11    11    12    1
   12    11    13    1
   13    11    14    1
   14    14    15    1
   15    14    16    1
   16    14    17    1
@<TRIPOS>SUBSTRUCTURE
       1 MOL1            1 RESIDUE      1      MOL     
@<SCITEGIC>MOL_PROPERTY
VConf Rank
SciTegic.value.IntegerValue
353

@<SCITEGIC>MOL_PROPERTY
Conf_Id
SciTegic.value.IntegerValue
1

@<SCITEGIC>MOL_PROPERTY
Delta U+W
SciTegic.value.DoubleValue
0.685

@<SCITEGIC>MOL_PROPERTY
U+W
SciTegic.value.DoubleValue
-15.179

@<SCITEGIC>MOL_PROPERTY
Grad RMS
SciTegic.value.DoubleValue
0.000000

@<SCITEGIC>MOL_PROPERTY
U
SciTegic.value.DoubleValue
45.697

@<SCITEGIC>MOL_PROPERTY
W
SciTegic.value.DoubleValue
-60.876

@<SCITEGIC>MOL_PROPERTY
W(PB)
SciTegic.value.DoubleValue
-62.586

@<SCITEGIC>MOL_PROPERTY
W(SA)
SciTegic.value.DoubleValue
1.710

@<SCITEGIC>MOL_PROPERTY
Valence
SciTegic.value.DoubleValue
1.263

@<SCITEGIC>MOL_PROPERTY
Coulomb
SciTegic.value.DoubleValue
44.179

@<SCITEGIC>MOL_PROPERTY
VdW
SciTegic.value.DoubleValue
0.255

@<SCITEGIC>MOL_PROPERTY
VdW6
SciTegic.value.DoubleValue
-3.552

@<SCITEGIC>MOL_PROPERTY
VdW12
SciTegic.value.DoubleValue
3.807

@<SCITEGIC>MOL_PROPERTY
Bond
SciTegic.value.DoubleValue
0.125

@<SCITEGIC>MOL_PROPERTY
Angle
SciTegic.value.DoubleValue
0.616

@<SCITEGIC>MOL_PROPERTY
Pdih
SciTegic.value.DoubleValue
0.521

@<SCITEGIC>MOL_PROPERTY
Idih
SciTegic.value.DoubleValue
0.000

@<SCITEGIC>MOL_PROPERTY
Tether
SciTegic.value.DoubleValue
0.000

@<TRIPOS>MOLECULE
guest-1_confgen4.mol2 : confsearch ligand conformer 354
          17          16           1
SMALL
USER_CHARGES
 
@<TRIPOS>ATOM
       1    N1      20.065207   19.399184   19.652601 N.4        1 MOL1        -0.5891
       2    H1      21.041779   19.430342   19.344845 H          1 MOL1         0.3726
       3    H2      19.864794   20.290768   20.114511 H          1 MOL1         0.3726
       4    H3      19.487538   19.364002   18.806594 H          1 MOL1         0.3726
       5    C1      19.797709   18.219780   20.567648 C.3        1 MOL1         0.0314
       6    H4      19.995444   17.306405   20.000036 H          1 MOL1         0.0999
       7    H5      18.737376   18.229634   20.832984 H          1 MOL1         0.0999
       8    C2      20.654970   18.219693   21.850232 C.3        1 MOL1        -0.1308
       9    H6      20.441523   17.302661   22.415296 H          1 MOL1         0.1025
      10    H7      21.716533   18.168449   21.574180 H          1 MOL1         0.1025
      11    C3      20.420398   19.447680   22.764881 C.3        1 MOL1        -0.1243
      12    H8      20.717111   20.368372   22.244361 H          1 MOL1         0.1025
      13    H9      21.080404   19.368139   23.640078 H          1 MOL1         0.1025
      14    C4      18.957439   19.571585   23.248819 C.3        1 MOL1        -0.2258
      15    H10     18.851966   20.414452   23.944102 H          1 MOL1         0.1036
      16    H11     18.637236   18.662410   23.774117 H          1 MOL1         0.1036
      17    H12     18.268561   19.744485   22.412457 H          1 MOL1         0.1036
@<TRIPOS>BOND
    1     1     2    1
    2     1     3    1
    3     1     4    1
    4     1     5    1
    5     5     6    1
    6     5     7    1
    7     5     8    1
    8     8     9    1
    9     8    10    1
   10     8    11    1
   11    11    12    1
   12    11    13    1
   13    11    14    1
   14    14    15    1
   15    14    16    1
   16    14    17    1
@<TRIPOS>SUBSTRUCTURE
       1 MOL1            1 RESIDUE      1      MOL     
@<SCITEGIC>MOL_PROPERTY
VConf Rank
SciTegic.value.IntegerValue
354

@<SCITEGIC>MOL_PROPERTY
Conf_Id
SciTegic.value.IntegerValue
43

@<SCITEGIC>MOL_PROPERTY
Delta U+W
SciTegic.value.DoubleValue
0.642

@<SCITEGIC>MOL_PROPERTY
U+W
SciTegic.value.DoubleValue
-15.222

@<SCITEGIC>MOL_PROPERTY
Grad RMS
SciTegic.value.DoubleValue
0.000000

@<SCITEGIC>MOL_PROPERTY
U
SciTegic.value.DoubleValue
45.697

@<SCITEGIC>MOL_PROPERTY
W
SciTegic.value.DoubleValue
-60.919

@<SCITEGIC>MOL_PROPERTY
W(PB)
SciTegic.value.DoubleValue
-62.631

@<SCITEGIC>MOL_PROPERTY
W(SA)
SciTegic.value.DoubleValue
1.712

@<SCITEGIC>MOL_PROPERTY
Valence
SciTegic.value.DoubleValue
1.262

@<SCITEGIC>MOL_PROPERTY
Coulomb
SciTegic.value.DoubleValue
44.179

@<SCITEGIC>MOL_PROPERTY
VdW
SciTegic.value.DoubleValue
0.255

@<SCITEGIC>MOL_PROPERTY
VdW6
SciTegic.value.DoubleValue
-3.552

@<SCITEGIC>MOL_PROPERTY
VdW12
SciTegic.value.DoubleValue
3.807

@<SCITEGIC>MOL_PROPERTY
Bond
SciTegic.value.DoubleValue
0.125

@<SCITEGIC>MOL_PROPERTY
Angle
SciTegic.value.DoubleValue
0.616

@<SCITEGIC>MOL_PROPERTY
Pdih
SciTegic.value.DoubleValue
0.521

@<SCITEGIC>MOL_PROPERTY
Idih
SciTegic.value.DoubleValue
0.000

@<SCITEGIC>MOL_PROPERTY
Tether
SciTegic.value.DoubleValue
0.000

@<TRIPOS>MOLECULE
guest-1_confgen4.mol2 : confsearch ligand conformer 355
          17          16           1
SMALL
USER_CHARGES
 
@<TRIPOS>ATOM
       1    N1      22.196608   17.923547   22.127251 N.4        1 MOL1        -0.5891
       2    H1      21.871595   17.344046   22.907149 H          1 MOL1         0.3726
       3    H2      22.666983   18.738064   22.533461 H          1 MOL1         0.3726
       4    H3      22.914372   17.382013   21.634845 H          1 MOL1         0.3726
       5    C1      21.061756   18.324053   21.205804 C.3        1 MOL1         0.0314
       6    H4      20.628769   17.411494   20.787138 H          1 MOL1         0.0999
       7    H5      21.484074   18.910482   20.385272 H          1 MOL1         0.0999
       8    C2      19.964611   19.139839   21.913637 C.3        1 MOL1        -0.1308
       9    H6      19.553642   18.553867   22.746542 H          1 MOL1         0.1025
      10    H7      20.405970   20.047759   22.345926 H          1 MOL1         0.1025
      11    C3      18.829143   19.526768   20.940745 C.3        1 MOL1        -0.1243
      12    H8      18.389151   18.618469   20.505170 H          1 MOL1         0.1025
      13    H9      19.240415   20.110596   20.105086 H          1 MOL1         0.1025
      14    C4      17.724780   20.345320   21.643817 C.3        1 MOL1        -0.2258
      15    H10     16.928269   20.609982   20.936306 H          1 MOL1         0.1036
      16    H11     18.128103   21.277619   22.060176 H          1 MOL1         0.1036
      17    H12     17.270166   19.773726   22.463460 H          1 MOL1         0.1036
@<TRIPOS>BOND
    1     1     2    1
    2     1     3    1
    3     1     4    1
    4     1     5    1
    5     5     6    1
    6     5     7    1
    7     5     8    1
    8     8     9    1
    9     8    10    1
   10     8    11    1
   11    11    12    1
   12    11    13    1
   13    11    14    1
   14    14    15    1
   15    14    16    1
   16    14    17    1
@<TRIPOS>SUBSTRUCTURE
       1 MOL1            1 RESIDUE      1      MOL     
@<SCITEGIC>MOL_PROPERTY
VConf Rank
SciTegic.value.IntegerValue
355

@<SCITEGIC>MOL_PROPERTY
Conf_Id
SciTegic.value.IntegerValue
7

@<SCITEGIC>MOL_PROPERTY
Delta U+W
SciTegic.value.DoubleValue
0.000

@<SCITEGIC>MOL_PROPERTY
U+W
SciTegic.value.DoubleValue
-15.865

@<SCITEGIC>MOL_PROPERTY
Grad RMS
SciTegic.value.DoubleValue
0.000000

@<SCITEGIC>MOL_PROPERTY
U
SciTegic.value.DoubleValue
44.664

@<SCITEGIC>MOL_PROPERTY
W
SciTegic.value.DoubleValue
-60.529

@<SCITEGIC>MOL_PROPERTY
W(PB)
SciTegic.value.DoubleValue
-62.309

@<SCITEGIC>MOL_PROPERTY
W(SA)
SciTegic.value.DoubleValue
1.780

@<SCITEGIC>MOL_PROPERTY
Valence
SciTegic.value.DoubleValue
0.872

@<SCITEGIC>MOL_PROPERTY
Coulomb
SciTegic.value.DoubleValue
43.648

@<SCITEGIC>MOL_PROPERTY
VdW
SciTegic.value.DoubleValue
0.144

@<SCITEGIC>MOL_PROPERTY
VdW6
SciTegic.value.DoubleValue
-2.370

@<SCITEGIC>MOL_PROPERTY
VdW12
SciTegic.value.DoubleValue
2.515

@<SCITEGIC>MOL_PROPERTY
Bond
SciTegic.value.DoubleValue
0.080

@<SCITEGIC>MOL_PROPERTY
Angle
SciTegic.value.DoubleValue
0.376

@<SCITEGIC>MOL_PROPERTY
Pdih
SciTegic.value.DoubleValue
0.416

@<SCITEGIC>MOL_PROPERTY
Idih
SciTegic.value.DoubleValue
0.000

@<SCITEGIC>MOL_PROPERTY
Tether
SciTegic.value.DoubleValue
0.000

@<TRIPOS>MOLECULE
guest-1_confgen4.mol2 : confsearch ligand conformer 356
          17          16           1
SMALL
USER_CHARGES
 
@<TRIPOS>ATOM
       1    N1      22.141831   19.997875   21.279900 N.4        1 MOL1        -0.5891
       2    H1      22.816962   19.406550   21.774046 H          1 MOL1         0.3726
       3    H2      22.030707   20.853554   21.832268 H          1 MOL1         0.3726
       4    H3      22.580019   20.271466   20.394472 H          1 MOL1         0.3726
       5    C1      20.820424   19.288873   21.059545 C.3        1 MOL1         0.0314
       6    H4      21.009035   18.407045   20.441310 H          1 MOL1         0.0999
       7    H5      20.165642   19.964308   20.502871 H          1 MOL1         0.0999
       8    C2      20.133843   18.863603   22.371684 C.3        1 MOL1        -0.1308
       9    H6      20.815334   18.218081   22.941552 H          1 MOL1         0.1025
      10    H7      19.945931   19.749109   22.993339 H          1 MOL1         0.1025
      11    C3      18.806415   18.106895   22.132238 C.3        1 MOL1        -0.1243
      12    H8      18.411850   17.763623   23.098915 H          1 MOL1         0.1025
      13    H9      18.997848   17.202189   21.538064 H          1 MOL1         0.1025
      14    C4      17.735642   18.972644   21.429471 C.3        1 MOL1        -0.2258
      15    H10     17.529921   19.887316   22.000592 H          1 MOL1         0.1036
      16    H11     16.793152   18.417803   21.335280 H          1 MOL1         0.1036
      17    H12     18.050823   19.262837   20.419254 H          1 MOL1         0.1036
@<TRIPOS>BOND
    1     1     2    1
    2     1     3    1
    3     1     4    1
    4     1     5    1
    5     5     6    1
    6     5     7    1
    7     5     8    1
    8     8     9    1
    9     8    10    1
   10     8    11    1
   11    11    12    1
   12    11    13    1
   13    11    14    1
   14    14    15    1
   15    14    16    1
   16    14    17    1
@<TRIPOS>SUBSTRUCTURE
       1 MOL1            1 RESIDUE      1      MOL     
@<SCITEGIC>MOL_PROPERTY
VConf Rank
SciTegic.value.IntegerValue
356

@<SCITEGIC>MOL_PROPERTY
Conf_Id
SciTegic.value.IntegerValue
36

@<SCITEGIC>MOL_PROPERTY
Delta U+W
SciTegic.value.DoubleValue
0.275

@<SCITEGIC>MOL_PROPERTY
U+W
SciTegic.value.DoubleValue
-15.590

@<SCITEGIC>MOL_PROPERTY
Grad RMS
SciTegic.value.DoubleValue
0.000000

@<SCITEGIC>MOL_PROPERTY
U
SciTegic.value.DoubleValue
45.174

@<SCITEGIC>MOL_PROPERTY
W
SciTegic.value.DoubleValue
-60.765

@<SCITEGIC>MOL_PROPERTY
W(PB)
SciTegic.value.DoubleValue
-62.518

@<SCITEGIC>MOL_PROPERTY
W(SA)
SciTegic.value.DoubleValue
1.754

@<SCITEGIC>MOL_PROPERTY
Valence
SciTegic.value.DoubleValue
1.161

@<SCITEGIC>MOL_PROPERTY
Coulomb
SciTegic.value.DoubleValue
43.789

@<SCITEGIC>MOL_PROPERTY
VdW
SciTegic.value.DoubleValue
0.224

@<SCITEGIC>MOL_PROPERTY
VdW6
SciTegic.value.DoubleValue
-2.897

@<SCITEGIC>MOL_PROPERTY
VdW12
SciTegic.value.DoubleValue
3.121

@<SCITEGIC>MOL_PROPERTY
Bond
SciTegic.value.DoubleValue
0.100

@<SCITEGIC>MOL_PROPERTY
Angle
SciTegic.value.DoubleValue
0.500

@<SCITEGIC>MOL_PROPERTY
Pdih
SciTegic.value.DoubleValue
0.561

@<SCITEGIC>MOL_PROPERTY
Idih
SciTegic.value.DoubleValue
0.000

@<SCITEGIC>MOL_PROPERTY
Tether
SciTegic.value.DoubleValue
0.000

@<TRIPOS>MOLECULE
guest-1_confgen4.mol2 : confsearch ligand conformer 357
          17          16           1
SMALL
USER_CHARGES
 
@<TRIPOS>ATOM
       1    N1      21.347331   19.300549   22.772787 N.4        1 MOL1        -0.5891
       2    H1      20.561870   18.849551   23.248702 H          1 MOL1         0.3726
       3    H2      21.307075   20.297827   23.003644 H          1 MOL1         0.3726
       4    H3      22.207057   18.932700   23.192765 H          1 MOL1         0.3726
       5    C1      21.306363   19.066786   21.274886 C.3        1 MOL1         0.0314
       6    H4      21.421072   17.995982   21.086411 H          1 MOL1         0.0999
       7    H5      22.172226   19.579687   20.847391 H          1 MOL1         0.0999
       8    C2      20.025448   19.583974   20.586857 C.3        1 MOL1        -0.1308
       9    H6      19.770423   20.581336   20.968905 H          1 MOL1         0.1025
      10    H7      20.249158   19.718234   19.520192 H          1 MOL1         0.1025
      11    C3      18.805747   18.634366   20.702092 C.3        1 MOL1        -0.1243
      12    H8      19.053278   17.659399   20.259159 H          1 MOL1         0.1025
      13    H9      17.988238   19.045745   20.093459 H          1 MOL1         0.1025
      14    C4      18.290001   18.428717   22.144520 C.3        1 MOL1        -0.2258
      15    H10     18.990299   17.832555   22.741052 H          1 MOL1         0.1036
      16    H11     17.334704   17.887936   22.133560 H          1 MOL1         0.1036
      17    H12     18.122910   19.389372   22.648877 H          1 MOL1         0.1036
@<TRIPOS>BOND
    1     1     2    1
    2     1     3    1
    3     1     4    1
    4     1     5    1
    5     5     6    1
    6     5     7    1
    7     5     8    1
    8     8     9    1
    9     8    10    1
   10     8    11    1
   11    11    12    1
   12    11    13    1
   13    11    14    1
   14    14    15    1
   15    14    16    1
   16    14    17    1
@<TRIPOS>SUBSTRUCTURE
       1 MOL1            1 RESIDUE      1      MOL     
@<SCITEGIC>MOL_PROPERTY
VConf Rank
SciTegic.value.IntegerValue
357

@<SCITEGIC>MOL_PROPERTY
Conf_Id
SciTegic.value.IntegerValue
19

@<SCITEGIC>MOL_PROPERTY
Delta U+W
SciTegic.value.DoubleValue
2.662

@<SCITEGIC>MOL_PROPERTY
U+W
SciTegic.value.DoubleValue
-13.203

@<SCITEGIC>MOL_PROPERTY
Grad RMS
SciTegic.value.DoubleValue
0.000000

@<SCITEGIC>MOL_PROPERTY
U
SciTegic.value.DoubleValue
47.423

@<SCITEGIC>MOL_PROPERTY
W
SciTegic.value.DoubleValue
-60.626

@<SCITEGIC>MOL_PROPERTY
W(PB)
SciTegic.value.DoubleValue
-62.328

@<SCITEGIC>MOL_PROPERTY
W(SA)
SciTegic.value.DoubleValue
1.702

@<SCITEGIC>MOL_PROPERTY
Valence
SciTegic.value.DoubleValue
2.414

@<SCITEGIC>MOL_PROPERTY
Coulomb
SciTegic.value.DoubleValue
44.831

@<SCITEGIC>MOL_PROPERTY
VdW
SciTegic.value.DoubleValue
0.178

@<SCITEGIC>MOL_PROPERTY
VdW6
SciTegic.value.DoubleValue
-3.743

@<SCITEGIC>MOL_PROPERTY
VdW12
SciTegic.value.DoubleValue
3.921

@<SCITEGIC>MOL_PROPERTY
Bond
SciTegic.value.DoubleValue
0.138

@<SCITEGIC>MOL_PROPERTY
Angle
SciTegic.value.DoubleValue
0.941

@<SCITEGIC>MOL_PROPERTY
Pdih
SciTegic.value.DoubleValue
1.335

@<SCITEGIC>MOL_PROPERTY
Idih
SciTegic.value.DoubleValue
0.000

@<SCITEGIC>MOL_PROPERTY
Tether
SciTegic.value.DoubleValue
0.000

@<TRIPOS>MOLECULE
guest-1_confgen4.mol2 : confsearch ligand conformer 358
          17          16           1
SMALL
USER_CHARGES
 
@<TRIPOS>ATOM
       1    N1      19.626714   17.292647   22.111779 N.4        1 MOL1        -0.5891
       2    H1      19.047430   16.451838   22.020703 H          1 MOL1         0.3726
       3    H2      20.263488   17.130951   22.897816 H          1 MOL1         0.3726
       4    H3      20.201055   17.356518   21.267446 H          1 MOL1         0.3726
       5    C1      18.785455   18.538039   22.315058 C.3        1 MOL1         0.0314
       6    H4      18.209143   18.388475   23.232135 H          1 MOL1         0.0999
       7    H5      18.080913   18.621801   21.483249 H          1 MOL1         0.0999
       8    C2      19.601916   19.841521   22.441299 C.3        1 MOL1        -0.1308
       9    H6      18.971979   20.583300   22.950012 H          1 MOL1         0.1025
      10    H7      20.467349   19.680548   23.097685 H          1 MOL1         0.1025
      11    C3      20.056117   20.448912   21.089455 C.3        1 MOL1        -0.1243
      12    H8      20.532094   21.419354   21.288652 H          1 MOL1         0.1025
      13    H9      19.176341   20.664195   20.466824 H          1 MOL1         0.1025
      14    C4      21.046969   19.568788   20.294174 C.3        1 MOL1        -0.2258
      15    H10     21.893572   19.256785   20.919529 H          1 MOL1         0.1036
      16    H11     21.451909   20.127815   19.440552 H          1 MOL1         0.1036
      17    H12     20.556768   18.675359   19.890234 H          1 MOL1         0.1036
@<TRIPOS>BOND
    1     1     2    1
    2     1     3    1
    3     1     4    1
    4     1     5    1
    5     5     6    1
    6     5     7    1
    7     5     8    1
    8     8     9    1
    9     8    10    1
   10     8    11    1
   11    11    12    1
   12    11    13    1
   13    11    14    1
   14    14    15    1
   15    14    16    1
   16    14    17    1
@<TRIPOS>SUBSTRUCTURE
       1 MOL1            1 RESIDUE      1      MOL     
@<SCITEGIC>MOL_PROPERTY
VConf Rank
SciTegic.value.IntegerValue
358

@<SCITEGIC>MOL_PROPERTY
Conf_Id
SciTegic.value.IntegerValue
44

@<SCITEGIC>MOL_PROPERTY
Delta U+W
SciTegic.value.DoubleValue
2.712

@<SCITEGIC>MOL_PROPERTY
U+W
SciTegic.value.DoubleValue
-13.153

@<SCITEGIC>MOL_PROPERTY
Grad RMS
SciTegic.value.DoubleValue
0.000000

@<SCITEGIC>MOL_PROPERTY
U
SciTegic.value.DoubleValue
47.423

@<SCITEGIC>MOL_PROPERTY
W
SciTegic.value.DoubleValue
-60.576

@<SCITEGIC>MOL_PROPERTY
W(PB)
SciTegic.value.DoubleValue
-62.262

@<SCITEGIC>MOL_PROPERTY
W(SA)
SciTegic.value.DoubleValue
1.687

@<SCITEGIC>MOL_PROPERTY
Valence
SciTegic.value.DoubleValue
2.414

@<SCITEGIC>MOL_PROPERTY
Coulomb
SciTegic.value.DoubleValue
44.831

@<SCITEGIC>MOL_PROPERTY
VdW
SciTegic.value.DoubleValue
0.178

@<SCITEGIC>MOL_PROPERTY
VdW6
SciTegic.value.DoubleValue
-3.743

@<SCITEGIC>MOL_PROPERTY
VdW12
SciTegic.value.DoubleValue
3.922

@<SCITEGIC>MOL_PROPERTY
Bond
SciTegic.value.DoubleValue
0.138

@<SCITEGIC>MOL_PROPERTY
Angle
SciTegic.value.DoubleValue
0.941

@<SCITEGIC>MOL_PROPERTY
Pdih
SciTegic.value.DoubleValue
1.335

@<SCITEGIC>MOL_PROPERTY
Idih
SciTegic.value.DoubleValue
0.000

@<SCITEGIC>MOL_PROPERTY
Tether
SciTegic.value.DoubleValue
0.000

@<TRIPOS>MOLECULE
guest-1_confgen4.mol2 : confsearch ligand conformer 359
          17          16           1
SMALL
USER_CHARGES
 
@<TRIPOS>ATOM
       1    N1      19.866421   17.574927   22.940898 N.4        1 MOL1        -0.5891
       2    H1      18.902496   17.739422   22.637193 H          1 MOL1         0.3726
       3    H2      19.949041   17.936768   23.895688 H          1 MOL1         0.3726
       4    H3      19.993748   16.559310   22.995474 H          1 MOL1         0.3726
       5    C1      20.868739   18.219410   22.002891 C.3        1 MOL1         0.0314
       6    H4      20.746736   17.769190   21.014345 H          1 MOL1         0.0999
       7    H5      21.870376   17.972531   22.365262 H          1 MOL1         0.0999
       8    C2      20.727051   19.751979   21.897651 C.3        1 MOL1        -0.1308
       9    H6      20.891442   20.197930   22.887526 H          1 MOL1         0.1025
      10    H7      21.528871   20.135376   21.252751 H          1 MOL1         0.1025
      11    C3      19.359042   20.221591   21.343059 C.3        1 MOL1        -0.1243
      12    H8      19.345676   21.320276   21.318240 H          1 MOL1         0.1025
      13    H9      18.552252   19.924163   22.026638 H          1 MOL1         0.1025
      14    C4      19.063990   19.683645   19.924131 C.3        1 MOL1        -0.2258
      15    H10     19.857140   19.969294   19.221005 H          1 MOL1         0.1036
      16    H11     18.118272   20.093099   19.546068 H          1 MOL1         0.1036
      17    H12     18.977349   18.589850   19.916729 H          1 MOL1         0.1036
@<TRIPOS>BOND
    1     1     2    1
    2     1     3    1
    3     1     4    1
    4     1     5    1
    5     5     6    1
    6     5     7    1
    7     5     8    1
    8     8     9    1
    9     8    10    1
   10     8    11    1
   11    11    12    1
   12    11    13    1
   13    11    14    1
   14    14    15    1
   15    14    16    1
   16    14    17    1
@<TRIPOS>SUBSTRUCTURE
       1 MOL1            1 RESIDUE      1      MOL     
@<SCITEGIC>MOL_PROPERTY
VConf Rank
SciTegic.value.IntegerValue
359

@<SCITEGIC>MOL_PROPERTY
Conf_Id
SciTegic.value.IntegerValue
1

@<SCITEGIC>MOL_PROPERTY
Delta U+W
SciTegic.value.DoubleValue
0.685

@<SCITEGIC>MOL_PROPERTY
U+W
SciTegic.value.DoubleValue
-15.179

@<SCITEGIC>MOL_PROPERTY
Grad RMS
SciTegic.value.DoubleValue
0.000000

@<SCITEGIC>MOL_PROPERTY
U
SciTegic.value.DoubleValue
45.697

@<SCITEGIC>MOL_PROPERTY
W
SciTegic.value.DoubleValue
-60.876

@<SCITEGIC>MOL_PROPERTY
W(PB)
SciTegic.value.DoubleValue
-62.586

@<SCITEGIC>MOL_PROPERTY
W(SA)
SciTegic.value.DoubleValue
1.710

@<SCITEGIC>MOL_PROPERTY
Valence
SciTegic.value.DoubleValue
1.263

@<SCITEGIC>MOL_PROPERTY
Coulomb
SciTegic.value.DoubleValue
44.179

@<SCITEGIC>MOL_PROPERTY
VdW
SciTegic.value.DoubleValue
0.255

@<SCITEGIC>MOL_PROPERTY
VdW6
SciTegic.value.DoubleValue
-3.552

@<SCITEGIC>MOL_PROPERTY
VdW12
SciTegic.value.DoubleValue
3.807

@<SCITEGIC>MOL_PROPERTY
Bond
SciTegic.value.DoubleValue
0.125

@<SCITEGIC>MOL_PROPERTY
Angle
SciTegic.value.DoubleValue
0.616

@<SCITEGIC>MOL_PROPERTY
Pdih
SciTegic.value.DoubleValue
0.521

@<SCITEGIC>MOL_PROPERTY
Idih
SciTegic.value.DoubleValue
0.000

@<SCITEGIC>MOL_PROPERTY
Tether
SciTegic.value.DoubleValue
0.000

@<TRIPOS>MOLECULE
guest-1_confgen4.mol2 : confsearch ligand conformer 360
          17          16           1
SMALL
USER_CHARGES
 
@<TRIPOS>ATOM
       1    N1      18.628205   19.469536   23.037600 N.4        1 MOL1        -0.5891
       2    H1      18.528433   20.481992   23.157409 H          1 MOL1         0.3726
       3    H2      19.502594   19.195362   23.494459 H          1 MOL1         0.3726
       4    H3      17.865500   19.031017   23.563575 H          1 MOL1         0.3726
       5    C1      18.608506   19.068178   21.575279 C.3        1 MOL1         0.0314
       6    H4      17.637240   19.356292   21.163976 H          1 MOL1         0.0999
       7    H5      18.688730   17.979408   21.520978 H          1 MOL1         0.0999
       8    C2      19.730369   19.714958   20.736816 C.3        1 MOL1        -0.1308
       9    H6      19.598755   19.420328   19.687210 H          1 MOL1         0.1025
      10    H7      19.616993   20.806810   20.764266 H          1 MOL1         0.1025
      11    C3      21.159805   19.334869   21.197038 C.3        1 MOL1        -0.1243
      12    H8      21.339399   19.704784   22.215646 H          1 MOL1         0.1025
      13    H9      21.887180   19.850705   20.554587 H          1 MOL1         0.1025
      14    C4      21.429758   17.813780   21.140382 C.3        1 MOL1        -0.2258
      15    H10     22.471257   17.597224   21.411219 H          1 MOL1         0.1036
      16    H11     21.257854   17.419865   20.130260 H          1 MOL1         0.1036
      17    H12     20.785409   17.262932   21.837039 H          1 MOL1         0.1036
@<TRIPOS>BOND
    1     1     2    1
    2     1     3    1
    3     1     4    1
    4     1     5    1
    5     5     6    1
    6     5     7    1
    7     5     8    1
    8     8     9    1
    9     8    10    1
   10     8    11    1
   11    11    12    1
   12    11    13    1
   13    11    14    1
   14    14    15    1
   15    14    16    1
   16    14    17    1
@<TRIPOS>SUBSTRUCTURE
       1 MOL1            1 RESIDUE      1      MOL     
@<SCITEGIC>MOL_PROPERTY
VConf Rank
SciTegic.value.IntegerValue
360

@<SCITEGIC>MOL_PROPERTY
Conf_Id
SciTegic.value.IntegerValue
43

@<SCITEGIC>MOL_PROPERTY
Delta U+W
SciTegic.value.DoubleValue
0.642

@<SCITEGIC>MOL_PROPERTY
U+W
SciTegic.value.DoubleValue
-15.222

@<SCITEGIC>MOL_PROPERTY
Grad RMS
SciTegic.value.DoubleValue
0.000000

@<SCITEGIC>MOL_PROPERTY
U
SciTegic.value.DoubleValue
45.697

@<SCITEGIC>MOL_PROPERTY
W
SciTegic.value.DoubleValue
-60.919

@<SCITEGIC>MOL_PROPERTY
W(PB)
SciTegic.value.DoubleValue
-62.631

@<SCITEGIC>MOL_PROPERTY
W(SA)
SciTegic.value.DoubleValue
1.712

@<SCITEGIC>MOL_PROPERTY
Valence
SciTegic.value.DoubleValue
1.262

@<SCITEGIC>MOL_PROPERTY
Coulomb
SciTegic.value.DoubleValue
44.179

@<SCITEGIC>MOL_PROPERTY
VdW
SciTegic.value.DoubleValue
0.255

@<SCITEGIC>MOL_PROPERTY
VdW6
SciTegic.value.DoubleValue
-3.552

@<SCITEGIC>MOL_PROPERTY
VdW12
SciTegic.value.DoubleValue
3.807

@<SCITEGIC>MOL_PROPERTY
Bond
SciTegic.value.DoubleValue
0.125

@<SCITEGIC>MOL_PROPERTY
Angle
SciTegic.value.DoubleValue
0.616

@<SCITEGIC>MOL_PROPERTY
Pdih
SciTegic.value.DoubleValue
0.521

@<SCITEGIC>MOL_PROPERTY
Idih
SciTegic.value.DoubleValue
0.000

@<SCITEGIC>MOL_PROPERTY
Tether
SciTegic.value.DoubleValue
0.000

@<TRIPOS>MOLECULE
guest-1_confgen4.mol2 : confsearch ligand conformer 361
          17          16           1
SMALL
USER_CHARGES
 
@<TRIPOS>ATOM
       1    N1      17.410059   19.302025   21.817200 N.4        1 MOL1        -0.5891
       2    H1      17.195348   19.337832   20.816044 H          1 MOL1         0.3726
       3    H2      17.396760   20.266616   22.162285 H          1 MOL1         0.3726
       4    H3      16.630214   18.814597   22.270152 H          1 MOL1         0.3726
       5    C1      18.735707   18.619563   22.089705 C.3        1 MOL1         0.0314
       6    H4      18.667177   17.591070   21.724973 H          1 MOL1         0.0999
       7    H5      18.883743   18.589773   23.172628 H          1 MOL1         0.0999
       8    C2      19.930210   19.326323   21.423436 C.3        1 MOL1        -0.1308
       9    H6      19.770740   19.368092   20.337703 H          1 MOL1         0.1025
      10    H7      19.986651   20.363301   21.780483 H          1 MOL1         0.1025
      11    C3      21.259279   18.599851   21.725650 C.3        1 MOL1        -0.1243
      12    H8      21.202189   17.560807   21.371452 H          1 MOL1         0.1025
      13    H9      21.417879   18.554862   22.812456 H          1 MOL1         0.1025
      14    C4      22.462111   19.303158   21.060437 C.3        1 MOL1        -0.2258
      15    H10     23.395769   18.772110   21.286977 H          1 MOL1         0.1036
      16    H11     22.566001   20.334758   21.421290 H          1 MOL1         0.1036
      17    H12     22.348571   19.332906   19.968910 H          1 MOL1         0.1036
@<TRIPOS>BOND
    1     1     2    1
    2     1     3    1
    3     1     4    1
    4     1     5    1
    5     5     6    1
    6     5     7    1
    7     5     8    1
    8     8     9    1
    9     8    10    1
   10     8    11    1
   11    11    12    1
   12    11    13    1
   13    11    14    1
   14    14    15    1
   15    14    16    1
   16    14    17    1
@<TRIPOS>SUBSTRUCTURE
       1 MOL1            1 RESIDUE      1      MOL     
@<SCITEGIC>MOL_PROPERTY
VConf Rank
SciTegic.value.IntegerValue
361

@<SCITEGIC>MOL_PROPERTY
Conf_Id
SciTegic.value.IntegerValue
7

@<SCITEGIC>MOL_PROPERTY
Delta U+W
SciTegic.value.DoubleValue
0.000

@<SCITEGIC>MOL_PROPERTY
U+W
SciTegic.value.DoubleValue
-15.865

@<SCITEGIC>MOL_PROPERTY
Grad RMS
SciTegic.value.DoubleValue
0.000000

@<SCITEGIC>MOL_PROPERTY
U
SciTegic.value.DoubleValue
44.664

@<SCITEGIC>MOL_PROPERTY
W
SciTegic.value.DoubleValue
-60.529

@<SCITEGIC>MOL_PROPERTY
W(PB)
SciTegic.value.DoubleValue
-62.309

@<SCITEGIC>MOL_PROPERTY
W(SA)
SciTegic.value.DoubleValue
1.780

@<SCITEGIC>MOL_PROPERTY
Valence
SciTegic.value.DoubleValue
0.872

@<SCITEGIC>MOL_PROPERTY
Coulomb
SciTegic.value.DoubleValue
43.648

@<SCITEGIC>MOL_PROPERTY
VdW
SciTegic.value.DoubleValue
0.144

@<SCITEGIC>MOL_PROPERTY
VdW6
SciTegic.value.DoubleValue
-2.370

@<SCITEGIC>MOL_PROPERTY
VdW12
SciTegic.value.DoubleValue
2.515

@<SCITEGIC>MOL_PROPERTY
Bond
SciTegic.value.DoubleValue
0.080

@<SCITEGIC>MOL_PROPERTY
Angle
SciTegic.value.DoubleValue
0.376

@<SCITEGIC>MOL_PROPERTY
Pdih
SciTegic.value.DoubleValue
0.416

@<SCITEGIC>MOL_PROPERTY
Idih
SciTegic.value.DoubleValue
0.000

@<SCITEGIC>MOL_PROPERTY
Tether
SciTegic.value.DoubleValue
0.000

@<TRIPOS>MOLECULE
guest-1_confgen4.mol2 : confsearch ligand conformer 362
          17          16           1
SMALL
USER_CHARGES
 
@<TRIPOS>ATOM
       1    N1      19.136761   21.373159   21.745767 N.4        1 MOL1        -0.5891
       2    H1      18.117527   21.372650   21.641805 H          1 MOL1         0.3726
       3    H2      19.529177   21.706708   20.860103 H          1 MOL1         0.3726
       4    H3      19.361896   22.079024   22.454225 H          1 MOL1         0.3726
       5    C1      19.669704   20.005424   22.123431 C.3        1 MOL1         0.0314
       6    H4      19.234722   19.727572   23.087277 H          1 MOL1         0.0999
       7    H5      20.752503   20.089377   22.247270 H          1 MOL1         0.0999
       8    C2      19.348723   18.919476   21.078612 C.3        1 MOL1        -0.1308
       9    H6      18.261456   18.871039   20.932389 H          1 MOL1         0.1025
      10    H7      19.784187   19.199375   20.110151 H          1 MOL1         0.1025
      11    C3      19.863399   17.521419   21.494004 C.3        1 MOL1        -0.1243
      12    H8      19.533279   16.783714   20.749160 H          1 MOL1         0.1025
      13    H9      19.402722   17.225314   22.447041 H          1 MOL1         0.1025
      14    C4      21.402909   17.456965   21.619359 C.3        1 MOL1        -0.2258
      15    H10     21.888526   17.754448   20.680847 H          1 MOL1         0.1036
      16    H11     21.727461   16.435099   21.854862 H          1 MOL1         0.1036
      17    H12     21.770431   18.113011   22.418497 H          1 MOL1         0.1036
@<TRIPOS>BOND
    1     1     2    1
    2     1     3    1
    3     1     4    1
    4     1     5    1
    5     5     6    1
    6     5     7    1
    7     5     8    1
    8     8     9    1
    9     8    10    1
   10     8    11    1
   11    11    12    1
   12    11    13    1
   13    11    14    1
   14    14    15    1
   15    14    16    1
   16    14    17    1
@<TRIPOS>SUBSTRUCTURE
       1 MOL1            1 RESIDUE      1      MOL     
@<SCITEGIC>MOL_PROPERTY
VConf Rank
SciTegic.value.IntegerValue
362

@<SCITEGIC>MOL_PROPERTY
Conf_Id
SciTegic.value.IntegerValue
36

@<SCITEGIC>MOL_PROPERTY
Delta U+W
SciTegic.value.DoubleValue
0.275

@<SCITEGIC>MOL_PROPERTY
U+W
SciTegic.value.DoubleValue
-15.590

@<SCITEGIC>MOL_PROPERTY
Grad RMS
SciTegic.value.DoubleValue
0.000000

@<SCITEGIC>MOL_PROPERTY
U
SciTegic.value.DoubleValue
45.174

@<SCITEGIC>MOL_PROPERTY
W
SciTegic.value.DoubleValue
-60.765

@<SCITEGIC>MOL_PROPERTY
W(PB)
SciTegic.value.DoubleValue
-62.518

@<SCITEGIC>MOL_PROPERTY
W(SA)
SciTegic.value.DoubleValue
1.754

@<SCITEGIC>MOL_PROPERTY
Valence
SciTegic.value.DoubleValue
1.161

@<SCITEGIC>MOL_PROPERTY
Coulomb
SciTegic.value.DoubleValue
43.789

@<SCITEGIC>MOL_PROPERTY
VdW
SciTegic.value.DoubleValue
0.224

@<SCITEGIC>MOL_PROPERTY
VdW6
SciTegic.value.DoubleValue
-2.897

@<SCITEGIC>MOL_PROPERTY
VdW12
SciTegic.value.DoubleValue
3.121

@<SCITEGIC>MOL_PROPERTY
Bond
SciTegic.value.DoubleValue
0.100

@<SCITEGIC>MOL_PROPERTY
Angle
SciTegic.value.DoubleValue
0.500

@<SCITEGIC>MOL_PROPERTY
Pdih
SciTegic.value.DoubleValue
0.561

@<SCITEGIC>MOL_PROPERTY
Idih
SciTegic.value.DoubleValue
0.000

@<SCITEGIC>MOL_PROPERTY
Tether
SciTegic.value.DoubleValue
0.000

@<TRIPOS>MOLECULE
guest-1_confgen4.mol2 : confsearch ligand conformer 363
          17          16           1
SMALL
USER_CHARGES
 
@<TRIPOS>ATOM
       1    N1      18.225292   18.830699   22.305555 N.4        1 MOL1        -0.5891
       2    H1      18.825636   19.395873   22.911369 H          1 MOL1         0.3726
       3    H2      18.174116   17.895268   22.720077 H          1 MOL1         0.3726
       4    H3      17.282604   19.230205   22.356131 H          1 MOL1         0.3726
       5    C1      18.744360   18.788246   20.881197 C.3        1 MOL1         0.0314
       6    H4      18.712651   19.800300   20.468832 H          1 MOL1         0.0999
       7    H5      18.051412   18.167524   20.306685 H          1 MOL1         0.0999
       8    C2      20.169193   18.211951   20.742100 C.3        1 MOL1        -0.1308
       9    H6      20.273502   17.313712   21.365009 H          1 MOL1         0.1025
      10    H7      20.294319   17.875032   19.704470 H          1 MOL1         0.1025
      11    C3      21.303846   19.220347   21.055793 C.3        1 MOL1        -0.1243
      12    H8      21.225652   20.085795   20.382810 H          1 MOL1         0.1025
      13    H9      22.265837   18.741704   20.824574 H          1 MOL1         0.1025
      14    C4      21.337147   19.709179   22.521678 C.3        1 MOL1        -0.2258
      15    H10     20.493058   20.372345   22.743940 H          1 MOL1         0.1036
      16    H11     22.254796   20.281127   22.711289 H          1 MOL1         0.1036
      17    H12     21.319779   18.865410   23.223750 H          1 MOL1         0.1036
@<TRIPOS>BOND
    1     1     2    1
    2     1     3    1
    3     1     4    1
    4     1     5    1
    5     5     6    1
    6     5     7    1
    7     5     8    1
    8     8     9    1
    9     8    10    1
   10     8    11    1
   11    11    12    1
   12    11    13    1
   13    11    14    1
   14    14    15    1
   15    14    16    1
   16    14    17    1
@<TRIPOS>SUBSTRUCTURE
       1 MOL1            1 RESIDUE      1      MOL     
@<SCITEGIC>MOL_PROPERTY
VConf Rank
SciTegic.value.IntegerValue
363

@<SCITEGIC>MOL_PROPERTY
Conf_Id
SciTegic.value.IntegerValue
19

@<SCITEGIC>MOL_PROPERTY
Delta U+W
SciTegic.value.DoubleValue
2.662

@<SCITEGIC>MOL_PROPERTY
U+W
SciTegic.value.DoubleValue
-13.203

@<SCITEGIC>MOL_PROPERTY
Grad RMS
SciTegic.value.DoubleValue
0.000000

@<SCITEGIC>MOL_PROPERTY
U
SciTegic.value.DoubleValue
47.423

@<SCITEGIC>MOL_PROPERTY
W
SciTegic.value.DoubleValue
-60.626

@<SCITEGIC>MOL_PROPERTY
W(PB)
SciTegic.value.DoubleValue
-62.328

@<SCITEGIC>MOL_PROPERTY
W(SA)
SciTegic.value.DoubleValue
1.702

@<SCITEGIC>MOL_PROPERTY
Valence
SciTegic.value.DoubleValue
2.414

@<SCITEGIC>MOL_PROPERTY
Coulomb
SciTegic.value.DoubleValue
44.831

@<SCITEGIC>MOL_PROPERTY
VdW
SciTegic.value.DoubleValue
0.178

@<SCITEGIC>MOL_PROPERTY
VdW6
SciTegic.value.DoubleValue
-3.743

@<SCITEGIC>MOL_PROPERTY
VdW12
SciTegic.value.DoubleValue
3.921

@<SCITEGIC>MOL_PROPERTY
Bond
SciTegic.value.DoubleValue
0.138

@<SCITEGIC>MOL_PROPERTY
Angle
SciTegic.value.DoubleValue
0.941

@<SCITEGIC>MOL_PROPERTY
Pdih
SciTegic.value.DoubleValue
1.335

@<SCITEGIC>MOL_PROPERTY
Idih
SciTegic.value.DoubleValue
0.000

@<SCITEGIC>MOL_PROPERTY
Tether
SciTegic.value.DoubleValue
0.000

@<TRIPOS>MOLECULE
guest-1_confgen4.mol2 : confsearch ligand conformer 364
          17          16           1
SMALL
USER_CHARGES
 
@<TRIPOS>ATOM
       1    N1      19.325639   17.546748   20.677111 N.4        1 MOL1        -0.5891
       2    H1      19.087599   16.551280   20.733712 H          1 MOL1         0.3726
       3    H2      19.402118   17.777771   19.681994 H          1 MOL1         0.3726
       4    H3      18.527650   18.069516   21.046938 H          1 MOL1         0.3726
       5    C1      20.603544   17.864893   21.429296 C.3        1 MOL1         0.0314
       6    H4      21.399772   17.270739   20.972637 H          1 MOL1         0.0999
       7    H5      20.488589   17.535962   22.465584 H          1 MOL1         0.0999
       8    C2      21.005414   19.354517   21.395641 C.3        1 MOL1        -0.1308
       9    H6      22.079722   19.416565   21.614408 H          1 MOL1         0.1025
      10    H7      20.881265   19.754186   20.380466 H          1 MOL1         0.1025
      11    C3      20.258133   20.245155   22.420842 C.3        1 MOL1        -0.1243
      12    H8      20.692611   21.254055   22.384222 H          1 MOL1         0.1025
      13    H9      20.442228   19.871885   23.438093 H          1 MOL1         0.1025
      14    C4      18.735338   20.356091   22.180697 C.3        1 MOL1        -0.2258
      15    H10     18.514881   20.636110   21.142362 H          1 MOL1         0.1036
      16    H11     18.302511   21.126356   22.832241 H          1 MOL1         0.1036
      17    H12     18.222198   19.415016   22.410358 H          1 MOL1         0.1036
@<TRIPOS>BOND
    1     1     2    1
    2     1     3    1
    3     1     4    1
    4     1     5    1
    5     5     6    1
    6     5     7    1
    7     5     8    1
    8     8     9    1
    9     8    10    1
   10     8    11    1
   11    11    12    1
   12    11    13    1
   13    11    14    1
   14    14    15    1
   15    14    16    1
   16    14    17    1
@<TRIPOS>SUBSTRUCTURE
       1 MOL1            1 RESIDUE      1      MOL     
@<SCITEGIC>MOL_PROPERTY
VConf Rank
SciTegic.value.IntegerValue
364

@<SCITEGIC>MOL_PROPERTY
Conf_Id
SciTegic.value.IntegerValue
44

@<SCITEGIC>MOL_PROPERTY
Delta U+W
SciTegic.value.DoubleValue
2.712

@<SCITEGIC>MOL_PROPERTY
U+W
SciTegic.value.DoubleValue
-13.153

@<SCITEGIC>MOL_PROPERTY
Grad RMS
SciTegic.value.DoubleValue
0.000000

@<SCITEGIC>MOL_PROPERTY
U
SciTegic.value.DoubleValue
47.423

@<SCITEGIC>MOL_PROPERTY
W
SciTegic.value.DoubleValue
-60.576

@<SCITEGIC>MOL_PROPERTY
W(PB)
SciTegic.value.DoubleValue
-62.262

@<SCITEGIC>MOL_PROPERTY
W(SA)
SciTegic.value.DoubleValue
1.687

@<SCITEGIC>MOL_PROPERTY
Valence
SciTegic.value.DoubleValue
2.414

@<SCITEGIC>MOL_PROPERTY
Coulomb
SciTegic.value.DoubleValue
44.831

@<SCITEGIC>MOL_PROPERTY
VdW
SciTegic.value.DoubleValue
0.178

@<SCITEGIC>MOL_PROPERTY
VdW6
SciTegic.value.DoubleValue
-3.743

@<SCITEGIC>MOL_PROPERTY
VdW12
SciTegic.value.DoubleValue
3.922

@<SCITEGIC>MOL_PROPERTY
Bond
SciTegic.value.DoubleValue
0.138

@<SCITEGIC>MOL_PROPERTY
Angle
SciTegic.value.DoubleValue
0.941

@<SCITEGIC>MOL_PROPERTY
Pdih
SciTegic.value.DoubleValue
1.335

@<SCITEGIC>MOL_PROPERTY
Idih
SciTegic.value.DoubleValue
0.000

@<SCITEGIC>MOL_PROPERTY
Tether
SciTegic.value.DoubleValue
0.000

@<TRIPOS>MOLECULE
guest-1_confgen4.mol2 : confsearch ligand conformer 365
          17          16           1
SMALL
USER_CHARGES
 
@<TRIPOS>ATOM
       1    N1      20.095170   17.075439   21.354028 N.4        1 MOL1        -0.5891
       2    H1      20.234771   17.507103   20.436082 H          1 MOL1         0.3726
       3    H2      19.180297   16.614931   21.336153 H          1 MOL1         0.3726
       4    H3      20.798825   16.335921   21.447040 H          1 MOL1         0.3726
       5    C1      20.194708   18.092795   22.474267 C.3        1 MOL1         0.0314
       6    H4      21.199700   18.522220   22.454543 H          1 MOL1         0.0999
       7    H5      20.074032   17.558760   23.420724 H          1 MOL1         0.0999
       8    C2      19.145386   19.220255   22.386636 C.3        1 MOL1        -0.1308
       9    H6      18.140178   18.782627   22.448183 H          1 MOL1         0.1025
      10    H7      19.251232   19.867790   23.267147 H          1 MOL1         0.1025
      11    C3      19.252916   20.082702   21.104381 C.3        1 MOL1        -0.1243
      12    H8      18.461414   20.844982   21.123341 H          1 MOL1         0.1025
      13    H9      19.057982   19.465577   20.216793 H          1 MOL1         0.1025
      14    C4      20.622683   20.784595   20.959871 C.3        1 MOL1        -0.2258
      15    H10     20.840258   21.409419   21.835841 H          1 MOL1         0.1036
      16    H11     20.630977   21.434259   20.075091 H          1 MOL1         0.1036
      17    H12     21.438113   20.059388   20.845429 H          1 MOL1         0.1036
@<TRIPOS>BOND
    1     1     2    1
    2     1     3    1
    3     1     4    1
    4     1     5    1
    5     5     6    1
    6     5     7    1
    7     5     8    1
    8     8     9    1
    9     8    10    1
   10     8    11    1
   11    11    12    1
   12    11    13    1
   13    11    14    1
   14    14    15    1
   15    14    16    1
   16    14    17    1
@<TRIPOS>SUBSTRUCTURE
       1 MOL1            1 RESIDUE      1      MOL     
@<SCITEGIC>MOL_PROPERTY
VConf Rank
SciTegic.value.IntegerValue
365

@<SCITEGIC>MOL_PROPERTY
Conf_Id
SciTegic.value.IntegerValue
1

@<SCITEGIC>MOL_PROPERTY
Delta U+W
SciTegic.value.DoubleValue
0.685

@<SCITEGIC>MOL_PROPERTY
U+W
SciTegic.value.DoubleValue
-15.179

@<SCITEGIC>MOL_PROPERTY
Grad RMS
SciTegic.value.DoubleValue
0.000000

@<SCITEGIC>MOL_PROPERTY
U
SciTegic.value.DoubleValue
45.697

@<SCITEGIC>MOL_PROPERTY
W
SciTegic.value.DoubleValue
-60.876

@<SCITEGIC>MOL_PROPERTY
W(PB)
SciTegic.value.DoubleValue
-62.586

@<SCITEGIC>MOL_PROPERTY
W(SA)
SciTegic.value.DoubleValue
1.710

@<SCITEGIC>MOL_PROPERTY
Valence
SciTegic.value.DoubleValue
1.263

@<SCITEGIC>MOL_PROPERTY
Coulomb
SciTegic.value.DoubleValue
44.179

@<SCITEGIC>MOL_PROPERTY
VdW
SciTegic.value.DoubleValue
0.255

@<SCITEGIC>MOL_PROPERTY
VdW6
SciTegic.value.DoubleValue
-3.552

@<SCITEGIC>MOL_PROPERTY
VdW12
SciTegic.value.DoubleValue
3.807

@<SCITEGIC>MOL_PROPERTY
Bond
SciTegic.value.DoubleValue
0.125

@<SCITEGIC>MOL_PROPERTY
Angle
SciTegic.value.DoubleValue
0.616

@<SCITEGIC>MOL_PROPERTY
Pdih
SciTegic.value.DoubleValue
0.521

@<SCITEGIC>MOL_PROPERTY
Idih
SciTegic.value.DoubleValue
0.000

@<SCITEGIC>MOL_PROPERTY
Tether
SciTegic.value.DoubleValue
0.000

@<TRIPOS>MOLECULE
guest-1_confgen4.mol2 : confsearch ligand conformer 366
          17          16           1
SMALL
USER_CHARGES
 
@<TRIPOS>ATOM
       1    N1      18.877874   17.838209   20.404500 N.4        1 MOL1        -0.5891
       2    H1      18.245668   18.372442   19.800937 H          1 MOL1         0.3726
       3    H2      18.444604   17.791880   21.331095 H          1 MOL1         0.3726
       4    H3      18.902150   16.881498   20.037372 H          1 MOL1         0.3726
       5    C1      20.261833   18.455661   20.461673 C.3        1 MOL1         0.0314
       6    H4      20.676246   18.438274   19.449993 H          1 MOL1         0.0999
       7    H5      20.889742   17.823413   21.094759 H          1 MOL1         0.0999
       8    C2      20.276360   19.903271   20.994716 C.3        1 MOL1        -0.1308
       9    H6      21.303556   20.287519   20.939709 H          1 MOL1         0.1025
      10    H7      19.676478   20.538329   20.329441 H          1 MOL1         0.1025
      11    C3      19.756694   20.045084   22.447092 C.3        1 MOL1        -0.1243
      12    H8      18.699788   19.750531   22.500408 H          1 MOL1         0.1025
      13    H9      19.790540   21.105764   22.732950 H          1 MOL1         0.1025
      14    C4      20.578172   19.223686   23.467032 C.3        1 MOL1        -0.2258
      15    H10     20.216913   19.405023   24.487608 H          1 MOL1         0.1036
      16    H11     21.639745   19.501196   23.433588 H          1 MOL1         0.1036
      17    H12     20.499623   18.146258   23.274868 H          1 MOL1         0.1036
@<TRIPOS>BOND
    1     1     2    1
    2     1     3    1
    3     1     4    1
    4     1     5    1
    5     5     6    1
    6     5     7    1
    7     5     8    1
    8     8     9    1
    9     8    10    1
   10     8    11    1
   11    11    12    1
   12    11    13    1
   13    11    14    1
   14    14    15    1
   15    14    16    1
   16    14    17    1
@<TRIPOS>SUBSTRUCTURE
       1 MOL1            1 RESIDUE      1      MOL     
@<SCITEGIC>MOL_PROPERTY
VConf Rank
SciTegic.value.IntegerValue
366

@<SCITEGIC>MOL_PROPERTY
Conf_Id
SciTegic.value.IntegerValue
43

@<SCITEGIC>MOL_PROPERTY
Delta U+W
SciTegic.value.DoubleValue
0.642

@<SCITEGIC>MOL_PROPERTY
U+W
SciTegic.value.DoubleValue
-15.222

@<SCITEGIC>MOL_PROPERTY
Grad RMS
SciTegic.value.DoubleValue
0.000000

@<SCITEGIC>MOL_PROPERTY
U
SciTegic.value.DoubleValue
45.697

@<SCITEGIC>MOL_PROPERTY
W
SciTegic.value.DoubleValue
-60.919

@<SCITEGIC>MOL_PROPERTY
W(PB)
SciTegic.value.DoubleValue
-62.631

@<SCITEGIC>MOL_PROPERTY
W(SA)
SciTegic.value.DoubleValue
1.712

@<SCITEGIC>MOL_PROPERTY
Valence
SciTegic.value.DoubleValue
1.262

@<SCITEGIC>MOL_PROPERTY
Coulomb
SciTegic.value.DoubleValue
44.179

@<SCITEGIC>MOL_PROPERTY
VdW
SciTegic.value.DoubleValue
0.255

@<SCITEGIC>MOL_PROPERTY
VdW6
SciTegic.value.DoubleValue
-3.552

@<SCITEGIC>MOL_PROPERTY
VdW12
SciTegic.value.DoubleValue
3.807

@<SCITEGIC>MOL_PROPERTY
Bond
SciTegic.value.DoubleValue
0.125

@<SCITEGIC>MOL_PROPERTY
Angle
SciTegic.value.DoubleValue
0.616

@<SCITEGIC>MOL_PROPERTY
Pdih
SciTegic.value.DoubleValue
0.521

@<SCITEGIC>MOL_PROPERTY
Idih
SciTegic.value.DoubleValue
0.000

@<SCITEGIC>MOL_PROPERTY
Tether
SciTegic.value.DoubleValue
0.000

@<TRIPOS>MOLECULE
guest-1_confgen4.mol2 : confsearch ligand conformer 367
          17          16           1
SMALL
USER_CHARGES
 
@<TRIPOS>ATOM
       1    N1      21.678569   20.146254   20.039036 N.4        1 MOL1        -0.5891
       2    H1      22.433278   19.468281   20.182085 H          1 MOL1         0.3726
       3    H2      21.891967   20.961251   20.622078 H          1 MOL1         0.3726
       4    H3      21.739355   20.455754   19.063627 H          1 MOL1         0.3726
       5    C1      20.318811   19.558615   20.360120 C.3        1 MOL1         0.0314
       6    H4      20.146126   18.717562   19.683117 H          1 MOL1         0.0999
       7    H5      19.564030   20.322978   20.156207 H          1 MOL1         0.0999
       8    C2      20.192551   19.082955   21.818910 C.3        1 MOL1        -0.1308
       9    H6      20.961910   18.326767   22.024473 H          1 MOL1         0.1025
      10    H7      20.381668   19.926680   22.495928 H          1 MOL1         0.1025
      11    C3      18.794237   18.491971   22.103475 C.3        1 MOL1        -0.1243
      12    H8      18.603005   17.649450   21.423833 H          1 MOL1         0.1025
      13    H9      18.023477   19.247420   21.894786 H          1 MOL1         0.1025
      14    C4      18.660175   18.012593   23.565042 C.3        1 MOL1        -0.2258
      15    H10     17.660684   17.596551   23.746635 H          1 MOL1         0.1036
      16    H11     18.812207   18.841553   24.268546 H          1 MOL1         0.1036
      17    H12     19.396358   17.231009   23.793884 H          1 MOL1         0.1036
@<TRIPOS>BOND
    1     1     2    1
    2     1     3    1
    3     1     4    1
    4     1     5    1
    5     5     6    1
    6     5     7    1
    7     5     8    1
    8     8     9    1
    9     8    10    1
   10     8    11    1
   11    11    12    1
   12    11    13    1
   13    11    14    1
   14    14    15    1
   15    14    16    1
   16    14    17    1
@<TRIPOS>SUBSTRUCTURE
       1 MOL1            1 RESIDUE      1      MOL     
@<SCITEGIC>MOL_PROPERTY
VConf Rank
SciTegic.value.IntegerValue
367

@<SCITEGIC>MOL_PROPERTY
Conf_Id
SciTegic.value.IntegerValue
7

@<SCITEGIC>MOL_PROPERTY
Delta U+W
SciTegic.value.DoubleValue
0.000

@<SCITEGIC>MOL_PROPERTY
U+W
SciTegic.value.DoubleValue
-15.865

@<SCITEGIC>MOL_PROPERTY
Grad RMS
SciTegic.value.DoubleValue
0.000000

@<SCITEGIC>MOL_PROPERTY
U
SciTegic.value.DoubleValue
44.664

@<SCITEGIC>MOL_PROPERTY
W
SciTegic.value.DoubleValue
-60.529

@<SCITEGIC>MOL_PROPERTY
W(PB)
SciTegic.value.DoubleValue
-62.309

@<SCITEGIC>MOL_PROPERTY
W(SA)
SciTegic.value.DoubleValue
1.780

@<SCITEGIC>MOL_PROPERTY
Valence
SciTegic.value.DoubleValue
0.872

@<SCITEGIC>MOL_PROPERTY
Coulomb
SciTegic.value.DoubleValue
43.648

@<SCITEGIC>MOL_PROPERTY
VdW
SciTegic.value.DoubleValue
0.144

@<SCITEGIC>MOL_PROPERTY
VdW6
SciTegic.value.DoubleValue
-2.370

@<SCITEGIC>MOL_PROPERTY
VdW12
SciTegic.value.DoubleValue
2.515

@<SCITEGIC>MOL_PROPERTY
Bond
SciTegic.value.DoubleValue
0.080

@<SCITEGIC>MOL_PROPERTY
Angle
SciTegic.value.DoubleValue
0.376

@<SCITEGIC>MOL_PROPERTY
Pdih
SciTegic.value.DoubleValue
0.416

@<SCITEGIC>MOL_PROPERTY
Idih
SciTegic.value.DoubleValue
0.000

@<SCITEGIC>MOL_PROPERTY
Tether
SciTegic.value.DoubleValue
0.000

@<TRIPOS>MOLECULE
guest-1_confgen4.mol2 : confsearch ligand conformer 368
          17          16           1
SMALL
USER_CHARGES
 
@<TRIPOS>ATOM
       1    N1      21.619880   18.125934   20.196964 N.4        1 MOL1        -0.5891
       2    H1      21.438808   17.121335   20.109537 H          1 MOL1         0.3726
       3    H2      22.416193   18.233741   20.832503 H          1 MOL1         0.3726
       4    H3      21.929473   18.452381   19.275863 H          1 MOL1         0.3726
       5    C1      20.399656   18.882719   20.682439 C.3        1 MOL1         0.0314
       6    H4      19.603443   18.748675   19.945224 H          1 MOL1         0.0999
       7    H5      20.656318   19.944553   20.720788 H          1 MOL1         0.0999
       8    C2      19.907459   18.416686   22.066098 C.3        1 MOL1        -0.1308
       9    H6      19.690634   17.340881   22.027279 H          1 MOL1         0.1025
      10    H7      20.707731   18.549761   22.806196 H          1 MOL1         0.1025
      11    C3      18.639301   19.169119   22.532601 C.3        1 MOL1        -0.1243
      12    H8      18.296421   18.735851   23.482703 H          1 MOL1         0.1025
      13    H9      17.826984   19.009550   21.809510 H          1 MOL1         0.1025
      14    C4      18.872697   20.685183   22.725048 C.3        1 MOL1        -0.2258
      15    H10     19.684855   20.872336   23.439539 H          1 MOL1         0.1036
      16    H11     17.966767   21.167738   23.114198 H          1 MOL1         0.1036
      17    H12     19.128762   21.177330   21.778310 H          1 MOL1         0.1036
@<TRIPOS>BOND
    1     1     2    1
    2     1     3    1
    3     1     4    1
    4     1     5    1
    5     5     6    1
    6     5     7    1
    7     5     8    1
    8     8     9    1
    9     8    10    1
   10     8    11    1
   11    11    12    1
   12    11    13    1
   13    11    14    1
   14    14    15    1
   15    14    16    1
   16    14    17    1
@<TRIPOS>SUBSTRUCTURE
       1 MOL1            1 RESIDUE      1      MOL     
@<SCITEGIC>MOL_PROPERTY
VConf Rank
SciTegic.value.IntegerValue
368

@<SCITEGIC>MOL_PROPERTY
Conf_Id
SciTegic.value.IntegerValue
36

@<SCITEGIC>MOL_PROPERTY
Delta U+W
SciTegic.value.DoubleValue
0.275

@<SCITEGIC>MOL_PROPERTY
U+W
SciTegic.value.DoubleValue
-15.590

@<SCITEGIC>MOL_PROPERTY
Grad RMS
SciTegic.value.DoubleValue
0.000000

@<SCITEGIC>MOL_PROPERTY
U
SciTegic.value.DoubleValue
45.174

@<SCITEGIC>MOL_PROPERTY
W
SciTegic.value.DoubleValue
-60.765

@<SCITEGIC>MOL_PROPERTY
W(PB)
SciTegic.value.DoubleValue
-62.518

@<SCITEGIC>MOL_PROPERTY
W(SA)
SciTegic.value.DoubleValue
1.754

@<SCITEGIC>MOL_PROPERTY
Valence
SciTegic.value.DoubleValue
1.161

@<SCITEGIC>MOL_PROPERTY
Coulomb
SciTegic.value.DoubleValue
43.789

@<SCITEGIC>MOL_PROPERTY
VdW
SciTegic.value.DoubleValue
0.224

@<SCITEGIC>MOL_PROPERTY
VdW6
SciTegic.value.DoubleValue
-2.897

@<SCITEGIC>MOL_PROPERTY
VdW12
SciTegic.value.DoubleValue
3.121

@<SCITEGIC>MOL_PROPERTY
Bond
SciTegic.value.DoubleValue
0.100

@<SCITEGIC>MOL_PROPERTY
Angle
SciTegic.value.DoubleValue
0.500

@<SCITEGIC>MOL_PROPERTY
Pdih
SciTegic.value.DoubleValue
0.561

@<SCITEGIC>MOL_PROPERTY
Idih
SciTegic.value.DoubleValue
0.000

@<SCITEGIC>MOL_PROPERTY
Tether
SciTegic.value.DoubleValue
0.000

@<TRIPOS>MOLECULE
guest-1_confgen4.mol2 : confsearch ligand conformer 369
          17          16           1
SMALL
USER_CHARGES
 
@<TRIPOS>ATOM
       1    N1      20.753384   17.447819   20.952798 N.4        1 MOL1        -0.5891
       2    H1      20.262594   17.266063   21.831965 H          1 MOL1         0.3726
       3    H2      21.748912   17.538776   21.176698 H          1 MOL1         0.3726
       4    H3      20.654749   16.608756   20.372224 H          1 MOL1         0.3726
       5    C1      20.217648   18.683035   20.254759 C.3        1 MOL1         0.0314
       6    H4      19.174823   18.502973   19.980178 H          1 MOL1         0.0999
       7    H5      20.793450   18.804627   19.333236 H          1 MOL1         0.0999
       8    C2      20.322369   19.978047   21.087580 C.3        1 MOL1        -0.1308
       9    H6      21.306343   20.034773   21.571630 H          1 MOL1         0.1025
      10    H7      20.279111   20.827369   20.392866 H          1 MOL1         0.1025
      11    C3      19.194757   20.161447   22.135225 C.3        1 MOL1        -0.1243
      12    H8      18.218458   20.166159   21.630409 H          1 MOL1         0.1025
      13    H9      19.305242   21.154919   22.592167 H          1 MOL1         0.1025
      14    C4      19.188185   19.100705   23.259355 C.3        1 MOL1        -0.2258
      15    H10     18.874925   18.119301   22.884668 H          1 MOL1         0.1036
      16    H11     18.479224   19.385927   24.047504 H          1 MOL1         0.1036
      17    H12     20.179026   19.004023   23.722000 H          1 MOL1         0.1036
@<TRIPOS>BOND
    1     1     2    1
    2     1     3    1
    3     1     4    1
    4     1     5    1
    5     5     6    1
    6     5     7    1
    7     5     8    1
    8     8     9    1
    9     8    10    1
   10     8    11    1
   11    11    12    1
   12    11    13    1
   13    11    14    1
   14    14    15    1
   15    14    16    1
   16    14    17    1
@<TRIPOS>SUBSTRUCTURE
       1 MOL1            1 RESIDUE      1      MOL     
@<SCITEGIC>MOL_PROPERTY
VConf Rank
SciTegic.value.IntegerValue
369

@<SCITEGIC>MOL_PROPERTY
Conf_Id
SciTegic.value.IntegerValue
19

@<SCITEGIC>MOL_PROPERTY
Delta U+W
SciTegic.value.DoubleValue
2.662

@<SCITEGIC>MOL_PROPERTY
U+W
SciTegic.value.DoubleValue
-13.203

@<SCITEGIC>MOL_PROPERTY
Grad RMS
SciTegic.value.DoubleValue
0.000000

@<SCITEGIC>MOL_PROPERTY
U
SciTegic.value.DoubleValue
47.423

@<SCITEGIC>MOL_PROPERTY
W
SciTegic.value.DoubleValue
-60.626

@<SCITEGIC>MOL_PROPERTY
W(PB)
SciTegic.value.DoubleValue
-62.328

@<SCITEGIC>MOL_PROPERTY
W(SA)
SciTegic.value.DoubleValue
1.702

@<SCITEGIC>MOL_PROPERTY
Valence
SciTegic.value.DoubleValue
2.414

@<SCITEGIC>MOL_PROPERTY
Coulomb
SciTegic.value.DoubleValue
44.831

@<SCITEGIC>MOL_PROPERTY
VdW
SciTegic.value.DoubleValue
0.178

@<SCITEGIC>MOL_PROPERTY
VdW6
SciTegic.value.DoubleValue
-3.743

@<SCITEGIC>MOL_PROPERTY
VdW12
SciTegic.value.DoubleValue
3.921

@<SCITEGIC>MOL_PROPERTY
Bond
SciTegic.value.DoubleValue
0.138

@<SCITEGIC>MOL_PROPERTY
Angle
SciTegic.value.DoubleValue
0.941

@<SCITEGIC>MOL_PROPERTY
Pdih
SciTegic.value.DoubleValue
1.335

@<SCITEGIC>MOL_PROPERTY
Idih
SciTegic.value.DoubleValue
0.000

@<SCITEGIC>MOL_PROPERTY
Tether
SciTegic.value.DoubleValue
0.000

@<TRIPOS>MOLECULE
guest-1_confgen4.mol2 : confsearch ligand conformer 370
          17          16           1
SMALL
USER_CHARGES
 
@<TRIPOS>ATOM
       1    N1      20.407201   17.382698   22.199603 N.4        1 MOL1        -0.5891
       2    H1      21.191898   16.751799   22.392063 H          1 MOL1         0.3726
       3    H2      19.553745   16.817933   22.245794 H          1 MOL1         0.3726
       4    H3      20.364882   18.055457   22.969309 H          1 MOL1         0.3726
       5    C1      20.554292   18.072784   20.857148 C.3        1 MOL1         0.0314
       6    H4      20.589334   17.288197   20.096404 H          1 MOL1         0.0999
       7    H5      21.510777   18.602095   20.840783 H          1 MOL1         0.0999
       8    C2      19.410022   19.051167   20.517995 C.3        1 MOL1        -0.1308
       9    H6      19.400644   19.190866   19.428848 H          1 MOL1         0.1025
      10    H7      18.441952   18.599440   20.771988 H          1 MOL1         0.1025
      11    C3      19.542470   20.448150   21.176478 C.3        1 MOL1        -0.1243
      12    H8      18.740905   21.091554   20.787227 H          1 MOL1         0.1025
      13    H9      20.486502   20.916138   20.863728 H          1 MOL1         0.1025
      14    C4      19.459379   20.437637   22.719807 C.3        1 MOL1        -0.2258
      15    H10     18.572360   19.892272   23.067555 H          1 MOL1         0.1036
      16    H11     19.391183   21.463679   23.104179 H          1 MOL1         0.1036
      17    H12     20.351666   19.984978   23.167695 H          1 MOL1         0.1036
@<TRIPOS>BOND
    1     1     2    1
    2     1     3    1
    3     1     4    1
    4     1     5    1
    5     5     6    1
    6     5     7    1
    7     5     8    1
    8     8     9    1
    9     8    10    1
   10     8    11    1
   11    11    12    1
   12    11    13    1
   13    11    14    1
   14    14    15    1
   15    14    16    1
   16    14    17    1
@<TRIPOS>SUBSTRUCTURE
       1 MOL1            1 RESIDUE      1      MOL     
@<SCITEGIC>MOL_PROPERTY
VConf Rank
SciTegic.value.IntegerValue
370

@<SCITEGIC>MOL_PROPERTY
Conf_Id
SciTegic.value.IntegerValue
44

@<SCITEGIC>MOL_PROPERTY
Delta U+W
SciTegic.value.DoubleValue
2.712

@<SCITEGIC>MOL_PROPERTY
U+W
SciTegic.value.DoubleValue
-13.153

@<SCITEGIC>MOL_PROPERTY
Grad RMS
SciTegic.value.DoubleValue
0.000000

@<SCITEGIC>MOL_PROPERTY
U
SciTegic.value.DoubleValue
47.423

@<SCITEGIC>MOL_PROPERTY
W
SciTegic.value.DoubleValue
-60.576

@<SCITEGIC>MOL_PROPERTY
W(PB)
SciTegic.value.DoubleValue
-62.262

@<SCITEGIC>MOL_PROPERTY
W(SA)
SciTegic.value.DoubleValue
1.687

@<SCITEGIC>MOL_PROPERTY
Valence
SciTegic.value.DoubleValue
2.414

@<SCITEGIC>MOL_PROPERTY
Coulomb
SciTegic.value.DoubleValue
44.831

@<SCITEGIC>MOL_PROPERTY
VdW
SciTegic.value.DoubleValue
0.178

@<SCITEGIC>MOL_PROPERTY
VdW6
SciTegic.value.DoubleValue
-3.743

@<SCITEGIC>MOL_PROPERTY
VdW12
SciTegic.value.DoubleValue
3.922

@<SCITEGIC>MOL_PROPERTY
Bond
SciTegic.value.DoubleValue
0.138

@<SCITEGIC>MOL_PROPERTY
Angle
SciTegic.value.DoubleValue
0.941

@<SCITEGIC>MOL_PROPERTY
Pdih
SciTegic.value.DoubleValue
1.335

@<SCITEGIC>MOL_PROPERTY
Idih
SciTegic.value.DoubleValue
0.000

@<SCITEGIC>MOL_PROPERTY
Tether
SciTegic.value.DoubleValue
0.000

@<TRIPOS>MOLECULE
guest-1_confgen4.mol2 : confsearch ligand conformer 371
          17          16           1
SMALL
USER_CHARGES
 
@<TRIPOS>ATOM
       1    N1      19.658573   17.239587   20.798447 N.4        1 MOL1        -0.5891
       2    H1      20.052945   17.098994   21.732872 H          1 MOL1         0.3726
       3    H2      20.395692   17.018684   20.122255 H          1 MOL1         0.3726
       4    H3      18.922016   16.537372   20.675783 H          1 MOL1         0.3726
       5    C1      19.129450   18.649343   20.618235 C.3        1 MOL1         0.0314
       6    H4      18.330494   18.807835   21.347174 H          1 MOL1         0.0999
       7    H5      18.692380   18.715636   19.618178 H          1 MOL1         0.0999
       8    C2      20.205020   19.743509   20.779076 C.3        1 MOL1        -0.1308
       9    H6      20.982110   19.599833   20.016686 H          1 MOL1         0.1025
      10    H7      19.747474   20.719374   20.568974 H          1 MOL1         0.1025
      11    C3      20.861510   19.780262   22.181654 C.3        1 MOL1        -0.1243
      12    H8      21.619489   20.575965   22.196737 H          1 MOL1         0.1025
      13    H9      21.402446   18.842952   22.370053 H          1 MOL1         0.1025
      14    C4      19.845669   20.032811   23.319232 C.3        1 MOL1        -0.2258
      15    H10     19.292129   20.966264   23.153924 H          1 MOL1         0.1036
      16    H11     20.361511   20.116169   24.284596 H          1 MOL1         0.1036
      17    H12     19.119734   19.214172   23.401673 H          1 MOL1         0.1036
@<TRIPOS>BOND
    1     1     2    1
    2     1     3    1
    3     1     4    1
    4     1     5    1
    5     5     6    1
    6     5     7    1
    7     5     8    1
    8     8     9    1
    9     8    10    1
   10     8    11    1
   11    11    12    1
   12    11    13    1
   13    11    14    1
   14    14    15    1
   15    14    16    1
   16    14    17    1
@<TRIPOS>SUBSTRUCTURE
       1 MOL1            1 RESIDUE      1      MOL     
@<SCITEGIC>MOL_PROPERTY
VConf Rank
SciTegic.value.IntegerValue
371

@<SCITEGIC>MOL_PROPERTY
Conf_Id
SciTegic.value.IntegerValue
1

@<SCITEGIC>MOL_PROPERTY
Delta U+W
SciTegic.value.DoubleValue
0.685

@<SCITEGIC>MOL_PROPERTY
U+W
SciTegic.value.DoubleValue
-15.179

@<SCITEGIC>MOL_PROPERTY
Grad RMS
SciTegic.value.DoubleValue
0.000000

@<SCITEGIC>MOL_PROPERTY
U
SciTegic.value.DoubleValue
45.697

@<SCITEGIC>MOL_PROPERTY
W
SciTegic.value.DoubleValue
-60.876

@<SCITEGIC>MOL_PROPERTY
W(PB)
SciTegic.value.DoubleValue
-62.586

@<SCITEGIC>MOL_PROPERTY
W(SA)
SciTegic.value.DoubleValue
1.710

@<SCITEGIC>MOL_PROPERTY
Valence
SciTegic.value.DoubleValue
1.263

@<SCITEGIC>MOL_PROPERTY
Coulomb
SciTegic.value.DoubleValue
44.179

@<SCITEGIC>MOL_PROPERTY
VdW
SciTegic.value.DoubleValue
0.255

@<SCITEGIC>MOL_PROPERTY
VdW6
SciTegic.value.DoubleValue
-3.552

@<SCITEGIC>MOL_PROPERTY
VdW12
SciTegic.value.DoubleValue
3.807

@<SCITEGIC>MOL_PROPERTY
Bond
SciTegic.value.DoubleValue
0.125

@<SCITEGIC>MOL_PROPERTY
Angle
SciTegic.value.DoubleValue
0.616

@<SCITEGIC>MOL_PROPERTY
Pdih
SciTegic.value.DoubleValue
0.521

@<SCITEGIC>MOL_PROPERTY
Idih
SciTegic.value.DoubleValue
0.000

@<SCITEGIC>MOL_PROPERTY
Tether
SciTegic.value.DoubleValue
0.000

@<TRIPOS>MOLECULE
guest-1_confgen4.mol2 : confsearch ligand conformer 372
          17          16           1
SMALL
USER_CHARGES
 
@<TRIPOS>ATOM
       1    N1      21.121741   18.216739   20.237822 N.4        1 MOL1        -0.5891
       2    H1      20.684061   17.406919   19.788373 H          1 MOL1         0.3726
       3    H2      21.457035   17.909315   21.155165 H          1 MOL1         0.3726
       4    H3      21.948928   18.454982   19.681342 H          1 MOL1         0.3726
       5    C1      20.163432   19.386455   20.352998 C.3        1 MOL1         0.0314
       6    H4      19.877798   19.683846   19.340324 H          1 MOL1         0.0999
       7    H5      20.700108   20.221117   20.811390 H          1 MOL1         0.0999
       8    C2      18.893339   19.072795   21.170557 C.3        1 MOL1        -0.1308
       9    H6      18.233904   19.950477   21.145594 H          1 MOL1         0.1025
      10    H7      18.340257   18.260937   20.679911 H          1 MOL1         0.1025
      11    C3      19.172241   18.687139   22.644681 C.3        1 MOL1        -0.1243
      12    H8      19.755153   17.757084   22.687858 H          1 MOL1         0.1025
      13    H9      18.215876   18.468742   23.140235 H          1 MOL1         0.1025
      14    C4      19.904203   19.797400   23.432939 C.3        1 MOL1        -0.2258
      15    H10     20.022119   19.508555   24.485380 H          1 MOL1         0.1036
      16    H11     19.339703   20.738490   23.405462 H          1 MOL1         0.1036
      17    H12     20.906088   19.987046   23.027711 H          1 MOL1         0.1036
@<TRIPOS>BOND
    1     1     2    1
    2     1     3    1
    3     1     4    1
    4     1     5    1
    5     5     6    1
    6     5     7    1
    7     5     8    1
    8     8     9    1
    9     8    10    1
   10     8    11    1
   11    11    12    1
   12    11    13    1
   13    11    14    1
   14    14    15    1
   15    14    16    1
   16    14    17    1
@<TRIPOS>SUBSTRUCTURE
       1 MOL1            1 RESIDUE      1      MOL     
@<SCITEGIC>MOL_PROPERTY
VConf Rank
SciTegic.value.IntegerValue
372

@<SCITEGIC>MOL_PROPERTY
Conf_Id
SciTegic.value.IntegerValue
43

@<SCITEGIC>MOL_PROPERTY
Delta U+W
SciTegic.value.DoubleValue
0.642

@<SCITEGIC>MOL_PROPERTY
U+W
SciTegic.value.DoubleValue
-15.222

@<SCITEGIC>MOL_PROPERTY
Grad RMS
SciTegic.value.DoubleValue
0.000000

@<SCITEGIC>MOL_PROPERTY
U
SciTegic.value.DoubleValue
45.697

@<SCITEGIC>MOL_PROPERTY
W
SciTegic.value.DoubleValue
-60.919

@<SCITEGIC>MOL_PROPERTY
W(PB)
SciTegic.value.DoubleValue
-62.631

@<SCITEGIC>MOL_PROPERTY
W(SA)
SciTegic.value.DoubleValue
1.712

@<SCITEGIC>MOL_PROPERTY
Valence
SciTegic.value.DoubleValue
1.262

@<SCITEGIC>MOL_PROPERTY
Coulomb
SciTegic.value.DoubleValue
44.179

@<SCITEGIC>MOL_PROPERTY
VdW
SciTegic.value.DoubleValue
0.255

@<SCITEGIC>MOL_PROPERTY
VdW6
SciTegic.value.DoubleValue
-3.552

@<SCITEGIC>MOL_PROPERTY
VdW12
SciTegic.value.DoubleValue
3.807

@<SCITEGIC>MOL_PROPERTY
Bond
SciTegic.value.DoubleValue
0.125

@<SCITEGIC>MOL_PROPERTY
Angle
SciTegic.value.DoubleValue
0.616

@<SCITEGIC>MOL_PROPERTY
Pdih
SciTegic.value.DoubleValue
0.521

@<SCITEGIC>MOL_PROPERTY
Idih
SciTegic.value.DoubleValue
0.000

@<SCITEGIC>MOL_PROPERTY
Tether
SciTegic.value.DoubleValue
0.000

@<TRIPOS>MOLECULE
guest-1_confgen4.mol2 : confsearch ligand conformer 373
          17          16           1
SMALL
USER_CHARGES
 
@<TRIPOS>ATOM
       1    N1      21.007079   19.318487   19.274869 N.4        1 MOL1        -0.5891
       2    H1      20.189008   19.716117   18.803333 H          1 MOL1         0.3726
       3    H2      21.039355   18.323393   19.033119 H          1 MOL1         0.3726
       4    H3      21.833360   19.753132   18.851485 H          1 MOL1         0.3726
       5    C1      20.960787   19.537555   20.773943 C.3        1 MOL1         0.0314
       6    H4      20.959429   20.615400   20.957713 H          1 MOL1         0.0999
       7    H5      21.873854   19.117809   21.204808 H          1 MOL1         0.0999
       8    C2      19.731007   18.897044   21.443008 C.3        1 MOL1        -0.1308
       9    H6      18.816176   19.309608   20.997063 H          1 MOL1         0.1025
      10    H7      19.727533   17.817160   21.243437 H          1 MOL1         0.1025
      11    C3      19.722447   19.143516   22.967704 C.3        1 MOL1        -0.1243
      12    H8      19.729276   20.224307   23.168131 H          1 MOL1         0.1025
      13    H9      20.639475   18.733623   23.414218 H          1 MOL1         0.1025
      14    C4      18.491555   18.503883   23.645737 C.3        1 MOL1        -0.2258
      15    H10     18.504114   18.690174   24.727488 H          1 MOL1         0.1036
      16    H11     18.475669   17.417011   23.491902 H          1 MOL1         0.1036
      17    H12     17.558284   18.919426   23.243822 H          1 MOL1         0.1036
@<TRIPOS>BOND
    1     1     2    1
    2     1     3    1
    3     1     4    1
    4     1     5    1
    5     5     6    1
    6     5     7    1
    7     5     8    1
    8     8     9    1
    9     8    10    1
   10     8    11    1
   11    11    12    1
   12    11    13    1
   13    11    14    1
   14    14    15    1
   15    14    16    1
   16    14    17    1
@<TRIPOS>SUBSTRUCTURE
       1 MOL1            1 RESIDUE      1      MOL     
@<SCITEGIC>MOL_PROPERTY
VConf Rank
SciTegic.value.IntegerValue
373

@<SCITEGIC>MOL_PROPERTY
Conf_Id
SciTegic.value.IntegerValue
7

@<SCITEGIC>MOL_PROPERTY
Delta U+W
SciTegic.value.DoubleValue
0.000

@<SCITEGIC>MOL_PROPERTY
U+W
SciTegic.value.DoubleValue
-15.865

@<SCITEGIC>MOL_PROPERTY
Grad RMS
SciTegic.value.DoubleValue
0.000000

@<SCITEGIC>MOL_PROPERTY
U
SciTegic.value.DoubleValue
44.664

@<SCITEGIC>MOL_PROPERTY
W
SciTegic.value.DoubleValue
-60.529

@<SCITEGIC>MOL_PROPERTY
W(PB)
SciTegic.value.DoubleValue
-62.309

@<SCITEGIC>MOL_PROPERTY
W(SA)
SciTegic.value.DoubleValue
1.780

@<SCITEGIC>MOL_PROPERTY
Valence
SciTegic.value.DoubleValue
0.872

@<SCITEGIC>MOL_PROPERTY
Coulomb
SciTegic.value.DoubleValue
43.648

@<SCITEGIC>MOL_PROPERTY
VdW
SciTegic.value.DoubleValue
0.144

@<SCITEGIC>MOL_PROPERTY
VdW6
SciTegic.value.DoubleValue
-2.370

@<SCITEGIC>MOL_PROPERTY
VdW12
SciTegic.value.DoubleValue
2.515

@<SCITEGIC>MOL_PROPERTY
Bond
SciTegic.value.DoubleValue
0.080

@<SCITEGIC>MOL_PROPERTY
Angle
SciTegic.value.DoubleValue
0.376

@<SCITEGIC>MOL_PROPERTY
Pdih
SciTegic.value.DoubleValue
0.416

@<SCITEGIC>MOL_PROPERTY
Idih
SciTegic.value.DoubleValue
0.000

@<SCITEGIC>MOL_PROPERTY
Tether
SciTegic.value.DoubleValue
0.000

@<TRIPOS>MOLECULE
guest-1_confgen4.mol2 : confsearch ligand conformer 374
          17          16           1
SMALL
USER_CHARGES
 
@<TRIPOS>ATOM
       1    N1      19.807768   16.745284   22.155734 N.4        1 MOL1        -0.5891
       2    H1      19.334866   16.637891   23.058219 H          1 MOL1         0.3726
       3    H2      20.806802   16.587532   22.319114 H          1 MOL1         0.3726
       4    H3      19.480865   15.980025   21.557105 H          1 MOL1         0.3726
       5    C1      19.541607   18.101278   21.533003 C.3        1 MOL1         0.0314
       6    H4      18.465565   18.188310   21.359891 H          1 MOL1         0.0999
       7    H5      20.048264   18.131513   20.564901 H          1 MOL1         0.0999
       8    C2      20.021567   19.275380   22.407692 C.3        1 MOL1        -0.1308
       9    H6      19.537224   19.212807   23.391244 H          1 MOL1         0.1025
      10    H7      21.102016   19.187035   22.582943 H          1 MOL1         0.1025
      11    C3      19.709064   20.653748   21.779640 C.3        1 MOL1        -0.1243
      12    H8      20.002438   21.442760   22.486304 H          1 MOL1         0.1025
      13    H9      18.624463   20.757141   21.634266 H          1 MOL1         0.1025
      14    C4      20.437352   20.884474   20.435646 C.3        1 MOL1        -0.2258
      15    H10     21.523985   20.780703   20.552200 H          1 MOL1         0.1036
      16    H11     20.236326   21.895214   20.057492 H          1 MOL1         0.1036
      17    H12     20.105208   20.172681   19.669407 H          1 MOL1         0.1036
@<TRIPOS>BOND
    1     1     2    1
    2     1     3    1
    3     1     4    1
    4     1     5    1
    5     5     6    1
    6     5     7    1
    7     5     8    1
    8     8     9    1
    9     8    10    1
   10     8    11    1
   11    11    12    1
   12    11    13    1
   13    11    14    1
   14    14    15    1
   15    14    16    1
   16    14    17    1
@<TRIPOS>SUBSTRUCTURE
       1 MOL1            1 RESIDUE      1      MOL     
@<SCITEGIC>MOL_PROPERTY
VConf Rank
SciTegic.value.IntegerValue
374

@<SCITEGIC>MOL_PROPERTY
Conf_Id
SciTegic.value.IntegerValue
36

@<SCITEGIC>MOL_PROPERTY
Delta U+W
SciTegic.value.DoubleValue
0.275

@<SCITEGIC>MOL_PROPERTY
U+W
SciTegic.value.DoubleValue
-15.590

@<SCITEGIC>MOL_PROPERTY
Grad RMS
SciTegic.value.DoubleValue
0.000000

@<SCITEGIC>MOL_PROPERTY
U
SciTegic.value.DoubleValue
45.174

@<SCITEGIC>MOL_PROPERTY
W
SciTegic.value.DoubleValue
-60.765

@<SCITEGIC>MOL_PROPERTY
W(PB)
SciTegic.value.DoubleValue
-62.518

@<SCITEGIC>MOL_PROPERTY
W(SA)
SciTegic.value.DoubleValue
1.754

@<SCITEGIC>MOL_PROPERTY
Valence
SciTegic.value.DoubleValue
1.161

@<SCITEGIC>MOL_PROPERTY
Coulomb
SciTegic.value.DoubleValue
43.789

@<SCITEGIC>MOL_PROPERTY
VdW
SciTegic.value.DoubleValue
0.224

@<SCITEGIC>MOL_PROPERTY
VdW6
SciTegic.value.DoubleValue
-2.897

@<SCITEGIC>MOL_PROPERTY
VdW12
SciTegic.value.DoubleValue
3.121

@<SCITEGIC>MOL_PROPERTY
Bond
SciTegic.value.DoubleValue
0.100

@<SCITEGIC>MOL_PROPERTY
Angle
SciTegic.value.DoubleValue
0.500

@<SCITEGIC>MOL_PROPERTY
Pdih
SciTegic.value.DoubleValue
0.561

@<SCITEGIC>MOL_PROPERTY
Idih
SciTegic.value.DoubleValue
0.000

@<SCITEGIC>MOL_PROPERTY
Tether
SciTegic.value.DoubleValue
0.000

@<TRIPOS>MOLECULE
guest-1_confgen4.mol2 : confsearch ligand conformer 375
          17          16           1
SMALL
USER_CHARGES
 
@<TRIPOS>ATOM
       1    N1      20.424385   17.364301   20.836851 N.4        1 MOL1        -0.5891
       2    H1      20.656368   17.389859   21.833031 H          1 MOL1         0.3726
       3    H2      21.291249   17.542794   20.320938 H          1 MOL1         0.3726
       4    H3      20.139956   16.404302   20.617022 H          1 MOL1         0.3726
       5    C1      19.342756   18.367632   20.485517 C.3        1 MOL1         0.0314
       6    H4      18.425299   18.088633   21.010621 H          1 MOL1         0.0999
       7    H5      19.158455   18.276274   19.411634 H          1 MOL1         0.0999
       8    C2      19.705915   19.831911   20.810503 C.3        1 MOL1        -0.1308
       9    H6      20.737184   20.041562   20.497037 H          1 MOL1         0.1025
      10    H7      19.066780   20.479743   20.195957 H          1 MOL1         0.1025
      11    C3      19.501861   20.230579   22.294460 C.3        1 MOL1        -0.1243
      12    H8      18.451269   20.075502   22.577709 H          1 MOL1         0.1025
      13    H9      19.686474   21.309708   22.391356 H          1 MOL1         0.1025
      14    C4      20.419100   19.483150   23.288898 C.3        1 MOL1        -0.2258
      15    H10     20.133878   18.429075   23.385081 H          1 MOL1         0.1036
      16    H11     20.341148   19.930467   24.288391 H          1 MOL1         0.1036
      17    H12     21.471121   19.539225   22.980255 H          1 MOL1         0.1036
@<TRIPOS>BOND
    1     1     2    1
    2     1     3    1
    3     1     4    1
    4     1     5    1
    5     5     6    1
    6     5     7    1
    7     5     8    1
    8     8     9    1
    9     8    10    1
   10     8    11    1
   11    11    12    1
   12    11    13    1
   13    11    14    1
   14    14    15    1
   15    14    16    1
   16    14    17    1
@<TRIPOS>SUBSTRUCTURE
       1 MOL1            1 RESIDUE      1      MOL     
@<SCITEGIC>MOL_PROPERTY
VConf Rank
SciTegic.value.IntegerValue
375

@<SCITEGIC>MOL_PROPERTY
Conf_Id
SciTegic.value.IntegerValue
19

@<SCITEGIC>MOL_PROPERTY
Delta U+W
SciTegic.value.DoubleValue
2.662

@<SCITEGIC>MOL_PROPERTY
U+W
SciTegic.value.DoubleValue
-13.203

@<SCITEGIC>MOL_PROPERTY
Grad RMS
SciTegic.value.DoubleValue
0.000000

@<SCITEGIC>MOL_PROPERTY
U
SciTegic.value.DoubleValue
47.423

@<SCITEGIC>MOL_PROPERTY
W
SciTegic.value.DoubleValue
-60.626

@<SCITEGIC>MOL_PROPERTY
W(PB)
SciTegic.value.DoubleValue
-62.328

@<SCITEGIC>MOL_PROPERTY
W(SA)
SciTegic.value.DoubleValue
1.702

@<SCITEGIC>MOL_PROPERTY
Valence
SciTegic.value.DoubleValue
2.414

@<SCITEGIC>MOL_PROPERTY
Coulomb
SciTegic.value.DoubleValue
44.831

@<SCITEGIC>MOL_PROPERTY
VdW
SciTegic.value.DoubleValue
0.178

@<SCITEGIC>MOL_PROPERTY
VdW6
SciTegic.value.DoubleValue
-3.743

@<SCITEGIC>MOL_PROPERTY
VdW12
SciTegic.value.DoubleValue
3.921

@<SCITEGIC>MOL_PROPERTY
Bond
SciTegic.value.DoubleValue
0.138

@<SCITEGIC>MOL_PROPERTY
Angle
SciTegic.value.DoubleValue
0.941

@<SCITEGIC>MOL_PROPERTY
Pdih
SciTegic.value.DoubleValue
1.335

@<SCITEGIC>MOL_PROPERTY
Idih
SciTegic.value.DoubleValue
0.000

@<SCITEGIC>MOL_PROPERTY
Tether
SciTegic.value.DoubleValue
0.000

@<TRIPOS>MOLECULE
guest-1_confgen4.mol2 : confsearch ligand conformer 376
          17          16           1
SMALL
USER_CHARGES
 
@<TRIPOS>ATOM
       1    N1      18.558031   18.690050   20.348190 N.4        1 MOL1        -0.5891
       2    H1      17.601650   18.357137   20.189040 H          1 MOL1         0.3726
       3    H2      19.017297   18.722841   19.433050 H          1 MOL1         0.3726
       4    H3      18.490116   19.653613   20.685498 H          1 MOL1         0.3726
       5    C1      19.308658   17.804358   21.323971 C.3        1 MOL1         0.0314
       6    H4      19.336867   16.801558   20.889077 H          1 MOL1         0.0999
       7    H5      18.739321   17.752484   22.255886 H          1 MOL1         0.0999
       8    C2      20.751681   18.265424   21.618447 C.3        1 MOL1        -0.1308
       9    H6      21.308822   17.399241   21.999454 H          1 MOL1         0.1025
      10    H7      21.250578   18.557415   20.684866 H          1 MOL1         0.1025
      11    C3      20.862030   19.401717   22.666952 C.3        1 MOL1        -0.1243
      12    H8      21.926617   19.576828   22.876670 H          1 MOL1         0.1025
      13    H9      20.415450   19.073448   23.616071 H          1 MOL1         0.1025
      14    C4      20.220018   20.738297   22.230771 C.3        1 MOL1        -0.2258
      15    H10     20.575805   21.046520   21.239022 H          1 MOL1         0.1036
      16    H11     20.480197   21.534748   22.940088 H          1 MOL1         0.1036
      17    H12     19.126070   20.671165   22.209551 H          1 MOL1         0.1036
@<TRIPOS>BOND
    1     1     2    1
    2     1     3    1
    3     1     4    1
    4     1     5    1
    5     5     6    1
    6     5     7    1
    7     5     8    1
    8     8     9    1
    9     8    10    1
   10     8    11    1
   11    11    12    1
   12    11    13    1
   13    11    14    1
   14    14    15    1
   15    14    16    1
   16    14    17    1
@<TRIPOS>SUBSTRUCTURE
       1 MOL1            1 RESIDUE      1      MOL     
@<SCITEGIC>MOL_PROPERTY
VConf Rank
SciTegic.value.IntegerValue
376

@<SCITEGIC>MOL_PROPERTY
Conf_Id
SciTegic.value.IntegerValue
44

@<SCITEGIC>MOL_PROPERTY
Delta U+W
SciTegic.value.DoubleValue
2.712

@<SCITEGIC>MOL_PROPERTY
U+W
SciTegic.value.DoubleValue
-13.153

@<SCITEGIC>MOL_PROPERTY
Grad RMS
SciTegic.value.DoubleValue
0.000000

@<SCITEGIC>MOL_PROPERTY
U
SciTegic.value.DoubleValue
47.423

@<SCITEGIC>MOL_PROPERTY
W
SciTegic.value.DoubleValue
-60.576

@<SCITEGIC>MOL_PROPERTY
W(PB)
SciTegic.value.DoubleValue
-62.262

@<SCITEGIC>MOL_PROPERTY
W(SA)
SciTegic.value.DoubleValue
1.687

@<SCITEGIC>MOL_PROPERTY
Valence
SciTegic.value.DoubleValue
2.414

@<SCITEGIC>MOL_PROPERTY
Coulomb
SciTegic.value.DoubleValue
44.831

@<SCITEGIC>MOL_PROPERTY
VdW
SciTegic.value.DoubleValue
0.178

@<SCITEGIC>MOL_PROPERTY
VdW6
SciTegic.value.DoubleValue
-3.743

@<SCITEGIC>MOL_PROPERTY
VdW12
SciTegic.value.DoubleValue
3.922

@<SCITEGIC>MOL_PROPERTY
Bond
SciTegic.value.DoubleValue
0.138

@<SCITEGIC>MOL_PROPERTY
Angle
SciTegic.value.DoubleValue
0.941

@<SCITEGIC>MOL_PROPERTY
Pdih
SciTegic.value.DoubleValue
1.335

@<SCITEGIC>MOL_PROPERTY
Idih
SciTegic.value.DoubleValue
0.000

@<SCITEGIC>MOL_PROPERTY
Tether
SciTegic.value.DoubleValue
0.000

@<TRIPOS>MOLECULE
guest-1_confgen4.mol2 : confsearch ligand conformer 377
          17          16           1
SMALL
USER_CHARGES
 
@<TRIPOS>ATOM
       1    N1      18.731497   20.570503   21.163276 N.4        1 MOL1        -0.5891
       2    H1      19.642808   20.959852   21.420892 H          1 MOL1         0.3726
       3    H2      18.086008   20.776551   21.931564 H          1 MOL1         0.3726
       4    H3      18.401123   21.096430   20.347848 H          1 MOL1         0.3726
       5    C1      18.816060   19.083300   20.878788 C.3        1 MOL1         0.0314
       6    H4      19.494427   18.937265   20.034219 H          1 MOL1         0.0999
       7    H5      17.821423   18.745221   20.575575 H          1 MOL1         0.0999
       8    C2      19.295482   18.245354   22.082084 C.3        1 MOL1        -0.1308
       9    H6      18.585964   18.366675   22.911310 H          1 MOL1         0.1025
      10    H7      19.263510   17.183163   21.805439 H          1 MOL1         0.1025
      11    C3      20.721894   18.601864   22.569736 C.3        1 MOL1        -0.1243
      12    H8      20.969413   17.968072   23.432839 H          1 MOL1         0.1025
      13    H9      20.747829   19.636943   22.936604 H          1 MOL1         0.1025
      14    C4      21.800496   18.408820   21.479255 C.3        1 MOL1        -0.2258
      15    H10     21.795177   17.379872   21.096757 H          1 MOL1         0.1036
      16    H11     22.799962   18.609232   21.886527 H          1 MOL1         0.1036
      17    H12     21.645569   19.089645   20.632837 H          1 MOL1         0.1036
@<TRIPOS>BOND
    1     1     2    1
    2     1     3    1
    3     1     4    1
    4     1     5    1
    5     5     6    1
    6     5     7    1
    7     5     8    1
    8     8     9    1
    9     8    10    1
   10     8    11    1
   11    11    12    1
   12    11    13    1
   13    11    14    1
   14    14    15    1
   15    14    16    1
   16    14    17    1
@<TRIPOS>SUBSTRUCTURE
       1 MOL1            1 RESIDUE      1      MOL     
@<SCITEGIC>MOL_PROPERTY
VConf Rank
SciTegic.value.IntegerValue
377

@<SCITEGIC>MOL_PROPERTY
Conf_Id
SciTegic.value.IntegerValue
1

@<SCITEGIC>MOL_PROPERTY
Delta U+W
SciTegic.value.DoubleValue
0.685

@<SCITEGIC>MOL_PROPERTY
U+W
SciTegic.value.DoubleValue
-15.179

@<SCITEGIC>MOL_PROPERTY
Grad RMS
SciTegic.value.DoubleValue
0.000000

@<SCITEGIC>MOL_PROPERTY
U
SciTegic.value.DoubleValue
45.697

@<SCITEGIC>MOL_PROPERTY
W
SciTegic.value.DoubleValue
-60.876

@<SCITEGIC>MOL_PROPERTY
W(PB)
SciTegic.value.DoubleValue
-62.586

@<SCITEGIC>MOL_PROPERTY
W(SA)
SciTegic.value.DoubleValue
1.710

@<SCITEGIC>MOL_PROPERTY
Valence
SciTegic.value.DoubleValue
1.263

@<SCITEGIC>MOL_PROPERTY
Coulomb
SciTegic.value.DoubleValue
44.179

@<SCITEGIC>MOL_PROPERTY
VdW
SciTegic.value.DoubleValue
0.255

@<SCITEGIC>MOL_PROPERTY
VdW6
SciTegic.value.DoubleValue
-3.552

@<SCITEGIC>MOL_PROPERTY
VdW12
SciTegic.value.DoubleValue
3.807

@<SCITEGIC>MOL_PROPERTY
Bond
SciTegic.value.DoubleValue
0.125

@<SCITEGIC>MOL_PROPERTY
Angle
SciTegic.value.DoubleValue
0.616

@<SCITEGIC>MOL_PROPERTY
Pdih
SciTegic.value.DoubleValue
0.521

@<SCITEGIC>MOL_PROPERTY
Idih
SciTegic.value.DoubleValue
0.000

@<SCITEGIC>MOL_PROPERTY
Tether
SciTegic.value.DoubleValue
0.000

@<TRIPOS>MOLECULE
guest-1_confgen4.mol2 : confsearch ligand conformer 378
          17          16           1
SMALL
USER_CHARGES
 
@<TRIPOS>ATOM
       1    N1      19.027403   20.080912   23.025433 N.4        1 MOL1        -0.5891
       2    H1      19.660017   20.773454   23.437212 H          1 MOL1         0.3726
       3    H2      19.269912   19.171654   23.429027 H          1 MOL1         0.3726
       4    H3      18.082766   20.310249   23.350599 H          1 MOL1         0.3726
       5    C1      19.114346   20.064768   21.511485 C.3        1 MOL1         0.0314
       6    H4      18.807600   21.049984   21.149829 H          1 MOL1         0.0999
       7    H5      18.396882   19.329501   21.138077 H          1 MOL1         0.0999
       8    C2      20.522291   19.738301   20.972014 C.3        1 MOL1        -0.1308
       9    H6      20.504600   19.812450   19.876572 H          1 MOL1         0.1025
      10    H7      21.227829   20.504896   21.318853 H          1 MOL1         0.1025
      11    C3      21.043883   18.337713   21.379265 C.3        1 MOL1        -0.1243
      12    H8      21.154763   18.278705   22.470539 H          1 MOL1         0.1025
      13    H9      22.052411   18.201374   20.964310 H          1 MOL1         0.1025
      14    C4      20.137745   17.186865   20.885038 C.3        1 MOL1        -0.2258
      15    H10     20.578351   16.213924   21.138458 H          1 MOL1         0.1036
      16    H11     20.012278   17.223678   19.795098 H          1 MOL1         0.1036
      17    H12     19.142910   17.229611   21.345934 H          1 MOL1         0.1036
@<TRIPOS>BOND
    1     1     2    1
    2     1     3    1
    3     1     4    1
    4     1     5    1
    5     5     6    1
    6     5     7    1
    7     5     8    1
    8     8     9    1
    9     8    10    1
   10     8    11    1
   11    11    12    1
   12    11    13    1
   13    11    14    1
   14    14    15    1
   15    14    16    1
   16    14    17    1
@<TRIPOS>SUBSTRUCTURE
       1 MOL1            1 RESIDUE      1      MOL     
@<SCITEGIC>MOL_PROPERTY
VConf Rank
SciTegic.value.IntegerValue
378

@<SCITEGIC>MOL_PROPERTY
Conf_Id
SciTegic.value.IntegerValue
43

@<SCITEGIC>MOL_PROPERTY
Delta U+W
SciTegic.value.DoubleValue
0.642

@<SCITEGIC>MOL_PROPERTY
U+W
SciTegic.value.DoubleValue
-15.222

@<SCITEGIC>MOL_PROPERTY
Grad RMS
SciTegic.value.DoubleValue
0.000000

@<SCITEGIC>MOL_PROPERTY
U
SciTegic.value.DoubleValue
45.697

@<SCITEGIC>MOL_PROPERTY
W
SciTegic.value.DoubleValue
-60.919

@<SCITEGIC>MOL_PROPERTY
W(PB)
SciTegic.value.DoubleValue
-62.631

@<SCITEGIC>MOL_PROPERTY
W(SA)
SciTegic.value.DoubleValue
1.712

@<SCITEGIC>MOL_PROPERTY
Valence
SciTegic.value.DoubleValue
1.262

@<SCITEGIC>MOL_PROPERTY
Coulomb
SciTegic.value.DoubleValue
44.179

@<SCITEGIC>MOL_PROPERTY
VdW
SciTegic.value.DoubleValue
0.255

@<SCITEGIC>MOL_PROPERTY
VdW6
SciTegic.value.DoubleValue
-3.552

@<SCITEGIC>MOL_PROPERTY
VdW12
SciTegic.value.DoubleValue
3.807

@<SCITEGIC>MOL_PROPERTY
Bond
SciTegic.value.DoubleValue
0.125

@<SCITEGIC>MOL_PROPERTY
Angle
SciTegic.value.DoubleValue
0.616

@<SCITEGIC>MOL_PROPERTY
Pdih
SciTegic.value.DoubleValue
0.521

@<SCITEGIC>MOL_PROPERTY
Idih
SciTegic.value.DoubleValue
0.000

@<SCITEGIC>MOL_PROPERTY
Tether
SciTegic.value.DoubleValue
0.000

@<TRIPOS>MOLECULE
guest-1_confgen4.mol2 : confsearch ligand conformer 379
          17          16           1
SMALL
USER_CHARGES
 
@<TRIPOS>ATOM
       1    N1      17.645599   17.993310   21.931380 N.4        1 MOL1        -0.5891
       2    H1      17.089822   18.849117   21.839726 H          1 MOL1         0.3726
       3    H2      17.731784   17.796569   22.933159 H          1 MOL1         0.3726
       4    H3      17.088499   17.233605   21.527157 H          1 MOL1         0.3726
       5    C1      18.998106   18.119713   21.258992 C.3        1 MOL1         0.0314
       6    H4      18.830013   18.297254   20.193277 H          1 MOL1         0.0999
       7    H5      19.520318   17.165402   21.369033 H          1 MOL1         0.0999
       8    C2      19.862134   19.252613   21.842306 C.3        1 MOL1        -0.1308
       9    H6      19.327945   20.207064   21.744040 H          1 MOL1         0.1025
      10    H7      20.015998   19.079033   22.915705 H          1 MOL1         0.1025
      11    C3      21.229418   19.346900   21.130151 C.3        1 MOL1        -0.1243
      12    H8      21.076005   19.517339   20.055097 H          1 MOL1         0.1025
      13    H9      21.763250   18.390721   21.225390 H          1 MOL1         0.1025
      14    C4      22.101692   20.481311   21.709981 C.3        1 MOL1        -0.2258
      15    H10     23.067734   20.531626   21.191060 H          1 MOL1         0.1036
      16    H11     22.301399   20.320281   22.777405 H          1 MOL1         0.1036
      17    H12     21.608691   21.455786   21.597924 H          1 MOL1         0.1036
@<TRIPOS>BOND
    1     1     2    1
    2     1     3    1
    3     1     4    1
    4     1     5    1
    5     5     6    1
    6     5     7    1
    7     5     8    1
    8     8     9    1
    9     8    10    1
   10     8    11    1
   11    11    12    1
   12    11    13    1
   13    11    14    1
   14    14    15    1
   15    14    16    1
   16    14    17    1
@<TRIPOS>SUBSTRUCTURE
       1 MOL1            1 RESIDUE      1      MOL     
@<SCITEGIC>MOL_PROPERTY
VConf Rank
SciTegic.value.IntegerValue
379

@<SCITEGIC>MOL_PROPERTY
Conf_Id
SciTegic.value.IntegerValue
7

@<SCITEGIC>MOL_PROPERTY
Delta U+W
SciTegic.value.DoubleValue
0.000

@<SCITEGIC>MOL_PROPERTY
U+W
SciTegic.value.DoubleValue
-15.865

@<SCITEGIC>MOL_PROPERTY
Grad RMS
SciTegic.value.DoubleValue
0.000000

@<SCITEGIC>MOL_PROPERTY
U
SciTegic.value.DoubleValue
44.664

@<SCITEGIC>MOL_PROPERTY
W
SciTegic.value.DoubleValue
-60.529

@<SCITEGIC>MOL_PROPERTY
W(PB)
SciTegic.value.DoubleValue
-62.309

@<SCITEGIC>MOL_PROPERTY
W(SA)
SciTegic.value.DoubleValue
1.780

@<SCITEGIC>MOL_PROPERTY
Valence
SciTegic.value.DoubleValue
0.872

@<SCITEGIC>MOL_PROPERTY
Coulomb
SciTegic.value.DoubleValue
43.648

@<SCITEGIC>MOL_PROPERTY
VdW
SciTegic.value.DoubleValue
0.144

@<SCITEGIC>MOL_PROPERTY
VdW6
SciTegic.value.DoubleValue
-2.370

@<SCITEGIC>MOL_PROPERTY
VdW12
SciTegic.value.DoubleValue
2.515

@<SCITEGIC>MOL_PROPERTY
Bond
SciTegic.value.DoubleValue
0.080

@<SCITEGIC>MOL_PROPERTY
Angle
SciTegic.value.DoubleValue
0.376

@<SCITEGIC>MOL_PROPERTY
Pdih
SciTegic.value.DoubleValue
0.416

@<SCITEGIC>MOL_PROPERTY
Idih
SciTegic.value.DoubleValue
0.000

@<SCITEGIC>MOL_PROPERTY
Tether
SciTegic.value.DoubleValue
0.000

@<TRIPOS>MOLECULE
guest-1_confgen4.mol2 : confsearch ligand conformer 380
          17          16           1
SMALL
USER_CHARGES
 
@<TRIPOS>ATOM
       1    N1      18.164011   20.729875   21.408512 N.4        1 MOL1        -0.5891
       2    H1      18.041054   21.199302   22.310824 H          1 MOL1         0.3726
       3    H2      17.381596   20.077433   21.299918 H          1 MOL1         0.3726
       4    H3      18.054668   21.446992   20.684198 H          1 MOL1         0.3726
       5    C1      19.504735   20.029691   21.310737 C.3        1 MOL1         0.0314
       6    H4      20.288635   20.786075   21.404500 H          1 MOL1         0.0999
       7    H5      19.577807   19.581484   20.316448 H          1 MOL1         0.0999
       8    C2      19.702075   18.943987   22.386033 C.3        1 MOL1        -0.1308
       9    H6      19.587033   19.396748   23.379839 H          1 MOL1         0.1025
      10    H7      18.913762   18.185185   22.292912 H          1 MOL1         0.1025
      11    C3      21.088740   18.264444   22.300083 C.3        1 MOL1        -0.1243
      12    H8      21.194750   17.562284   23.138961 H          1 MOL1         0.1025
      13    H9      21.878905   19.018003   22.426451 H          1 MOL1         0.1025
      14    C4      21.306475   17.501324   20.973359 C.3        1 MOL1        -0.2258
      15    H10     20.525581   16.745194   20.819745 H          1 MOL1         0.1036
      16    H11     22.275272   16.985200   20.980724 H          1 MOL1         0.1036
      17    H12     21.300282   18.180551   20.111556 H          1 MOL1         0.1036
@<TRIPOS>BOND
    1     1     2    1
    2     1     3    1
    3     1     4    1
    4     1     5    1
    5     5     6    1
    6     5     7    1
    7     5     8    1
    8     8     9    1
    9     8    10    1
   10     8    11    1
   11    11    12    1
   12    11    13    1
   13    11    14    1
   14    14    15    1
   15    14    16    1
   16    14    17    1
@<TRIPOS>SUBSTRUCTURE
       1 MOL1            1 RESIDUE      1      MOL     
@<SCITEGIC>MOL_PROPERTY
VConf Rank
SciTegic.value.IntegerValue
380

@<SCITEGIC>MOL_PROPERTY
Conf_Id
SciTegic.value.IntegerValue
36

@<SCITEGIC>MOL_PROPERTY
Delta U+W
SciTegic.value.DoubleValue
0.275

@<SCITEGIC>MOL_PROPERTY
U+W
SciTegic.value.DoubleValue
-15.590

@<SCITEGIC>MOL_PROPERTY
Grad RMS
SciTegic.value.DoubleValue
0.000000

@<SCITEGIC>MOL_PROPERTY
U
SciTegic.value.DoubleValue
45.174

@<SCITEGIC>MOL_PROPERTY
W
SciTegic.value.DoubleValue
-60.765

@<SCITEGIC>MOL_PROPERTY
W(PB)
SciTegic.value.DoubleValue
-62.518

@<SCITEGIC>MOL_PROPERTY
W(SA)
SciTegic.value.DoubleValue
1.754

@<SCITEGIC>MOL_PROPERTY
Valence
SciTegic.value.DoubleValue
1.161

@<SCITEGIC>MOL_PROPERTY
Coulomb
SciTegic.value.DoubleValue
43.789

@<SCITEGIC>MOL_PROPERTY
VdW
SciTegic.value.DoubleValue
0.224

@<SCITEGIC>MOL_PROPERTY
VdW6
SciTegic.value.DoubleValue
-2.897

@<SCITEGIC>MOL_PROPERTY
VdW12
SciTegic.value.DoubleValue
3.121

@<SCITEGIC>MOL_PROPERTY
Bond
SciTegic.value.DoubleValue
0.100

@<SCITEGIC>MOL_PROPERTY
Angle
SciTegic.value.DoubleValue
0.500

@<SCITEGIC>MOL_PROPERTY
Pdih
SciTegic.value.DoubleValue
0.561

@<SCITEGIC>MOL_PROPERTY
Idih
SciTegic.value.DoubleValue
0.000

@<SCITEGIC>MOL_PROPERTY
Tether
SciTegic.value.DoubleValue
0.000

@<TRIPOS>MOLECULE
guest-1_confgen4.mol2 : confsearch ligand conformer 381
          17          16           1
SMALL
USER_CHARGES
 
@<TRIPOS>ATOM
       1    N1      21.122335   17.554736   21.568602 N.4        1 MOL1        -0.5891
       2    H1      21.572966   18.416412   21.250338 H          1 MOL1         0.3726
       3    H2      20.886281   17.011652   20.732648 H          1 MOL1         0.3726
       4    H3      21.827208   17.016977   22.083180 H          1 MOL1         0.3726
       5    C1      19.899407   17.840675   22.418729 C.3        1 MOL1         0.0314
       6    H4      20.219770   18.360001   23.325907 H          1 MOL1         0.0999
       7    H5      19.481154   16.874124   22.712634 H          1 MOL1         0.0999
       8    C2      18.807828   18.664203   21.703278 C.3        1 MOL1        -0.1308
       9    H6      18.660220   18.286025   20.683022 H          1 MOL1         0.1025
      10    H7      17.859311   18.491025   22.228797 H          1 MOL1         0.1025
      11    C3      19.067412   20.192196   21.679611 C.3        1 MOL1        -0.1243
      12    H8      19.150341   20.568973   22.708777 H          1 MOL1         0.1025
      13    H9      18.186786   20.686079   21.245367 H          1 MOL1         0.1025
      14    C4      20.316500   20.615790   20.873863 C.3        1 MOL1        -0.2258
      15    H10     21.242090   20.322915   21.382963 H          1 MOL1         0.1036
      16    H11     20.343315   21.707270   20.759367 H          1 MOL1         0.1036
      17    H12     20.310275   20.175663   19.868178 H          1 MOL1         0.1036
@<TRIPOS>BOND
    1     1     2    1
    2     1     3    1
    3     1     4    1
    4     1     5    1
    5     5     6    1
    6     5     7    1
    7     5     8    1
    8     8     9    1
    9     8    10    1
   10     8    11    1
   11    11    12    1
   12    11    13    1
   13    11    14    1
   14    14    15    1
   15    14    16    1
   16    14    17    1
@<TRIPOS>SUBSTRUCTURE
       1 MOL1            1 RESIDUE      1      MOL     
@<SCITEGIC>MOL_PROPERTY
VConf Rank
SciTegic.value.IntegerValue
381

@<SCITEGIC>MOL_PROPERTY
Conf_Id
SciTegic.value.IntegerValue
19

@<SCITEGIC>MOL_PROPERTY
Delta U+W
SciTegic.value.DoubleValue
2.662

@<SCITEGIC>MOL_PROPERTY
U+W
SciTegic.value.DoubleValue
-13.203

@<SCITEGIC>MOL_PROPERTY
Grad RMS
SciTegic.value.DoubleValue
0.000000

@<SCITEGIC>MOL_PROPERTY
U
SciTegic.value.DoubleValue
47.423

@<SCITEGIC>MOL_PROPERTY
W
SciTegic.value.DoubleValue
-60.626

@<SCITEGIC>MOL_PROPERTY
W(PB)
SciTegic.value.DoubleValue
-62.328

@<SCITEGIC>MOL_PROPERTY
W(SA)
SciTegic.value.DoubleValue
1.702

@<SCITEGIC>MOL_PROPERTY
Valence
SciTegic.value.DoubleValue
2.414

@<SCITEGIC>MOL_PROPERTY
Coulomb
SciTegic.value.DoubleValue
44.831

@<SCITEGIC>MOL_PROPERTY
VdW
SciTegic.value.DoubleValue
0.178

@<SCITEGIC>MOL_PROPERTY
VdW6
SciTegic.value.DoubleValue
-3.743

@<SCITEGIC>MOL_PROPERTY
VdW12
SciTegic.value.DoubleValue
3.921

@<SCITEGIC>MOL_PROPERTY
Bond
SciTegic.value.DoubleValue
0.138

@<SCITEGIC>MOL_PROPERTY
Angle
SciTegic.value.DoubleValue
0.941

@<SCITEGIC>MOL_PROPERTY
Pdih
SciTegic.value.DoubleValue
1.335

@<SCITEGIC>MOL_PROPERTY
Idih
SciTegic.value.DoubleValue
0.000

@<SCITEGIC>MOL_PROPERTY
Tether
SciTegic.value.DoubleValue
0.000

@<TRIPOS>MOLECULE
guest-1_confgen4.mol2 : confsearch ligand conformer 382
          17          16           1
SMALL
USER_CHARGES
 
@<TRIPOS>ATOM
       1    N1      18.661228   17.900174   22.387459 N.4        1 MOL1        -0.5891
       2    H1      18.001879   17.128390   22.244513 H          1 MOL1         0.3726
       3    H2      18.497756   18.259273   23.332872 H          1 MOL1         0.3726
       4    H3      19.602450   17.499145   22.376452 H          1 MOL1         0.3726
       5    C1      18.498952   18.982582   21.337651 C.3        1 MOL1         0.0314
       6    H4      17.474350   19.355624   21.418682 H          1 MOL1         0.0999
       7    H5      18.616337   18.529589   20.349563 H          1 MOL1         0.0999
       8    C2      19.478210   20.165625   21.489557 C.3        1 MOL1        -0.1308
       9    H6      19.048320   21.026284   20.960117 H          1 MOL1         0.1025
      10    H7      19.546035   20.464024   22.544113 H          1 MOL1         0.1025
      11    C3      20.892598   19.907700   20.910176 C.3        1 MOL1        -0.1243
      12    H8      21.468782   20.841375   20.975392 H          1 MOL1         0.1025
      13    H9      20.816025   19.672176   19.839341 H          1 MOL1         0.1025
      14    C4      21.683226   18.790326   21.627994 C.3        1 MOL1        -0.2258
      15    H10     21.696991   18.946656   22.714513 H          1 MOL1         0.1036
      16    H11     22.724442   18.777416   21.280347 H          1 MOL1         0.1036
      17    H12     21.261630   17.800487   21.417861 H          1 MOL1         0.1036
@<TRIPOS>BOND
    1     1     2    1
    2     1     3    1
    3     1     4    1
    4     1     5    1
    5     5     6    1
    6     5     7    1
    7     5     8    1
    8     8     9    1
    9     8    10    1
   10     8    11    1
   11    11    12    1
   12    11    13    1
   13    11    14    1
   14    14    15    1
   15    14    16    1
   16    14    17    1
@<TRIPOS>SUBSTRUCTURE
       1 MOL1            1 RESIDUE      1      MOL     
@<SCITEGIC>MOL_PROPERTY
VConf Rank
SciTegic.value.IntegerValue
382

@<SCITEGIC>MOL_PROPERTY
Conf_Id
SciTegic.value.IntegerValue
44

@<SCITEGIC>MOL_PROPERTY
Delta U+W
SciTegic.value.DoubleValue
2.712

@<SCITEGIC>MOL_PROPERTY
U+W
SciTegic.value.DoubleValue
-13.153

@<SCITEGIC>MOL_PROPERTY
Grad RMS
SciTegic.value.DoubleValue
0.000000

@<SCITEGIC>MOL_PROPERTY
U
SciTegic.value.DoubleValue
47.423

@<SCITEGIC>MOL_PROPERTY
W
SciTegic.value.DoubleValue
-60.576

@<SCITEGIC>MOL_PROPERTY
W(PB)
SciTegic.value.DoubleValue
-62.262

@<SCITEGIC>MOL_PROPERTY
W(SA)
SciTegic.value.DoubleValue
1.687

@<SCITEGIC>MOL_PROPERTY
Valence
SciTegic.value.DoubleValue
2.414

@<SCITEGIC>MOL_PROPERTY
Coulomb
SciTegic.value.DoubleValue
44.831

@<SCITEGIC>MOL_PROPERTY
VdW
SciTegic.value.DoubleValue
0.178

@<SCITEGIC>MOL_PROPERTY
VdW6
SciTegic.value.DoubleValue
-3.743

@<SCITEGIC>MOL_PROPERTY
VdW12
SciTegic.value.DoubleValue
3.922

@<SCITEGIC>MOL_PROPERTY
Bond
SciTegic.value.DoubleValue
0.138

@<SCITEGIC>MOL_PROPERTY
Angle
SciTegic.value.DoubleValue
0.941

@<SCITEGIC>MOL_PROPERTY
Pdih
SciTegic.value.DoubleValue
1.335

@<SCITEGIC>MOL_PROPERTY
Idih
SciTegic.value.DoubleValue
0.000

@<SCITEGIC>MOL_PROPERTY
Tether
SciTegic.value.DoubleValue
0.000

@<TRIPOS>MOLECULE
guest-1_confgen4.mol2 : confsearch ligand conformer 383
          17          16           1
SMALL
USER_CHARGES
 
@<TRIPOS>ATOM
       1    N1      19.845490   17.117998   22.100296 N.4        1 MOL1        -0.5891
       2    H1      18.881893   17.464236   22.093509 H          1 MOL1         0.3726
       3    H2      20.108860   16.974560   23.079806 H          1 MOL1         0.3726
       4    H3      19.834553   16.194006   21.656688 H          1 MOL1         0.3726
       5    C1      20.790064   18.071472   21.394233 C.3        1 MOL1         0.0314
       6    H4      20.470972   18.155871   20.352186 H          1 MOL1         0.0999
       7    H5      21.787081   17.622770   21.406962 H          1 MOL1         0.0999
       8    C2      20.852880   19.473718   22.034297 C.3        1 MOL1        -0.1308
       9    H6      21.213108   19.382433   23.067569 H          1 MOL1         0.1025
      10    H7      21.604368   20.070243   21.500230 H          1 MOL1         0.1025
      11    C3      19.501655   20.231133   22.026022 C.3        1 MOL1        -0.1243
      12    H8      19.640129   21.207003   22.512239 H          1 MOL1         0.1025
      13    H9      18.762741   19.691808   22.634125 H          1 MOL1         0.1025
      14    C4      18.941335   20.454310   20.602634 C.3        1 MOL1        -0.2258
      15    H10     19.662526   20.993447   19.974714 H          1 MOL1         0.1036
      16    H11     18.019917   21.049726   20.640542 H          1 MOL1         0.1036
      17    H12     18.701071   19.504028   20.109497 H          1 MOL1         0.1036
@<TRIPOS>BOND
    1     1     2    1
    2     1     3    1
    3     1     4    1
    4     1     5    1
    5     5     6    1
    6     5     7    1
    7     5     8    1
    8     8     9    1
    9     8    10    1
   10     8    11    1
   11    11    12    1
   12    11    13    1
   13    11    14    1
   14    14    15    1
   15    14    16    1
   16    14    17    1
@<TRIPOS>SUBSTRUCTURE
       1 MOL1            1 RESIDUE      1      MOL     
@<SCITEGIC>MOL_PROPERTY
VConf Rank
SciTegic.value.IntegerValue
383

@<SCITEGIC>MOL_PROPERTY
Conf_Id
SciTegic.value.IntegerValue
1

@<SCITEGIC>MOL_PROPERTY
Delta U+W
SciTegic.value.DoubleValue
0.685

@<SCITEGIC>MOL_PROPERTY
U+W
SciTegic.value.DoubleValue
-15.179

@<SCITEGIC>MOL_PROPERTY
Grad RMS
SciTegic.value.DoubleValue
0.000000

@<SCITEGIC>MOL_PROPERTY
U
SciTegic.value.DoubleValue
45.697

@<SCITEGIC>MOL_PROPERTY
W
SciTegic.value.DoubleValue
-60.876

@<SCITEGIC>MOL_PROPERTY
W(PB)
SciTegic.value.DoubleValue
-62.586

@<SCITEGIC>MOL_PROPERTY
W(SA)
SciTegic.value.DoubleValue
1.710

@<SCITEGIC>MOL_PROPERTY
Valence
SciTegic.value.DoubleValue
1.263

@<SCITEGIC>MOL_PROPERTY
Coulomb
SciTegic.value.DoubleValue
44.179

@<SCITEGIC>MOL_PROPERTY
VdW
SciTegic.value.DoubleValue
0.255

@<SCITEGIC>MOL_PROPERTY
VdW6
SciTegic.value.DoubleValue
-3.552

@<SCITEGIC>MOL_PROPERTY
VdW12
SciTegic.value.DoubleValue
3.807

@<SCITEGIC>MOL_PROPERTY
Bond
SciTegic.value.DoubleValue
0.125

@<SCITEGIC>MOL_PROPERTY
Angle
SciTegic.value.DoubleValue
0.616

@<SCITEGIC>MOL_PROPERTY
Pdih
SciTegic.value.DoubleValue
0.521

@<SCITEGIC>MOL_PROPERTY
Idih
SciTegic.value.DoubleValue
0.000

@<SCITEGIC>MOL_PROPERTY
Tether
SciTegic.value.DoubleValue
0.000

@<TRIPOS>MOLECULE
guest-1_confgen4.mol2 : confsearch ligand conformer 384
          17          16           1
SMALL
USER_CHARGES
 
@<TRIPOS>ATOM
       1    N1      20.282450   17.822321   23.135474 N.4        1 MOL1        -0.5891
       2    H1      20.286574   18.333983   24.022921 H          1 MOL1         0.3726
       3    H2      21.181045   18.001624   22.678500 H          1 MOL1         0.3726
       4    H3      20.258672   16.824195   23.367524 H          1 MOL1         0.3726
       5    C1      19.114580   18.224819   22.255740 C.3        1 MOL1         0.0314
       6    H4      18.193799   17.971711   22.788315 H          1 MOL1         0.0999
       7    H5      19.153463   17.623451   21.343791 H          1 MOL1         0.0999
       8    C2      19.097709   19.723516   21.890304 C.3        1 MOL1        -0.1308
       9    H6      18.189133   19.933443   21.310455 H          1 MOL1         0.1025
      10    H7      19.017368   20.317869   22.810108 H          1 MOL1         0.1025
      11    C3      20.335508   20.189304   21.083797 C.3        1 MOL1        -0.1243
      12    H8      21.245754   20.070885   21.687189 H          1 MOL1         0.1025
      13    H9      20.242571   21.265937   20.883480 H          1 MOL1         0.1025
      14    C4      20.499954   19.441079   19.741070 C.3        1 MOL1        -0.2258
      15    H10     21.348399   19.847323   19.175319 H          1 MOL1         0.1036
      16    H11     19.601859   19.545615   19.118524 H          1 MOL1         0.1036
      17    H12     20.687148   18.370965   19.895230 H          1 MOL1         0.1036
@<TRIPOS>BOND
    1     1     2    1
    2     1     3    1
    3     1     4    1
    4     1     5    1
    5     5     6    1
    6     5     7    1
    7     5     8    1
    8     8     9    1
    9     8    10    1
   10     8    11    1
   11    11    12    1
   12    11    13    1
   13    11    14    1
   14    14    15    1
   15    14    16    1
   16    14    17    1
@<TRIPOS>SUBSTRUCTURE
       1 MOL1            1 RESIDUE      1      MOL     
@<SCITEGIC>MOL_PROPERTY
VConf Rank
SciTegic.value.IntegerValue
384

@<SCITEGIC>MOL_PROPERTY
Conf_Id
SciTegic.value.IntegerValue
43

@<SCITEGIC>MOL_PROPERTY
Delta U+W
SciTegic.value.DoubleValue
0.642

@<SCITEGIC>MOL_PROPERTY
U+W
SciTegic.value.DoubleValue
-15.222

@<SCITEGIC>MOL_PROPERTY
Grad RMS
SciTegic.value.DoubleValue
0.000000

@<SCITEGIC>MOL_PROPERTY
U
SciTegic.value.DoubleValue
45.697

@<SCITEGIC>MOL_PROPERTY
W
SciTegic.value.DoubleValue
-60.919

@<SCITEGIC>MOL_PROPERTY
W(PB)
SciTegic.value.DoubleValue
-62.631

@<SCITEGIC>MOL_PROPERTY
W(SA)
SciTegic.value.DoubleValue
1.712

@<SCITEGIC>MOL_PROPERTY
Valence
SciTegic.value.DoubleValue
1.262

@<SCITEGIC>MOL_PROPERTY
Coulomb
SciTegic.value.DoubleValue
44.179

@<SCITEGIC>MOL_PROPERTY
VdW
SciTegic.value.DoubleValue
0.255

@<SCITEGIC>MOL_PROPERTY
VdW6
SciTegic.value.DoubleValue
-3.552

@<SCITEGIC>MOL_PROPERTY
VdW12
SciTegic.value.DoubleValue
3.807

@<SCITEGIC>MOL_PROPERTY
Bond
SciTegic.value.DoubleValue
0.125

@<SCITEGIC>MOL_PROPERTY
Angle
SciTegic.value.DoubleValue
0.616

@<SCITEGIC>MOL_PROPERTY
Pdih
SciTegic.value.DoubleValue
0.521

@<SCITEGIC>MOL_PROPERTY
Idih
SciTegic.value.DoubleValue
0.000

@<SCITEGIC>MOL_PROPERTY
Tether
SciTegic.value.DoubleValue
0.000

@<TRIPOS>MOLECULE
guest-1_confgen4.mol2 : confsearch ligand conformer 385
          17          16           1
SMALL
USER_CHARGES
 
@<TRIPOS>ATOM
       1    N1      17.886259   18.621562   23.054834 N.4        1 MOL1        -0.5891
       2    H1      17.657768   17.694609   22.683019 H          1 MOL1         0.3726
       3    H2      17.259507   19.291428   22.598589 H          1 MOL1         0.3726
       4    H3      17.636346   18.611795   24.048995 H          1 MOL1         0.3726
       5    C1      19.345185   18.974280   22.843934 C.3        1 MOL1         0.0314
       6    H4      19.951179   18.239452   23.380890 H          1 MOL1         0.0999
       7    H5      19.522934   19.956537   23.290142 H          1 MOL1         0.0999
       8    C2      19.755249   18.998137   21.360175 C.3        1 MOL1        -0.1308
       9    H6      19.560909   18.014773   20.911601 H          1 MOL1         0.1025
      10    H7      19.134247   19.726047   20.821201 H          1 MOL1         0.1025
      11    C3      21.246849   19.361038   21.190019 C.3        1 MOL1        -0.1243
      12    H8      21.868836   18.634655   21.732076 H          1 MOL1         0.1025
      13    H9      21.442686   20.343863   21.641714 H          1 MOL1         0.1025
      14    C4      21.665505   19.386856   19.704080 C.3        1 MOL1        -0.2258
      15    H10     22.727508   19.646353   19.604794 H          1 MOL1         0.1036
      16    H11     21.083993   20.129477   19.142327 H          1 MOL1         0.1036
      17    H12     21.513446   18.406785   19.233393 H          1 MOL1         0.1036
@<TRIPOS>BOND
    1     1     2    1
    2     1     3    1
    3     1     4    1
    4     1     5    1
    5     5     6    1
    6     5     7    1
    7     5     8    1
    8     8     9    1
    9     8    10    1
   10     8    11    1
   11    11    12    1
   12    11    13    1
   13    11    14    1
   14    14    15    1
   15    14    16    1
   16    14    17    1
@<TRIPOS>SUBSTRUCTURE
       1 MOL1            1 RESIDUE      1      MOL     
@<SCITEGIC>MOL_PROPERTY
VConf Rank
SciTegic.value.IntegerValue
385

@<SCITEGIC>MOL_PROPERTY
Conf_Id
SciTegic.value.IntegerValue
7

@<SCITEGIC>MOL_PROPERTY
Delta U+W
SciTegic.value.DoubleValue
0.000

@<SCITEGIC>MOL_PROPERTY
U+W
SciTegic.value.DoubleValue
-15.865

@<SCITEGIC>MOL_PROPERTY
Grad RMS
SciTegic.value.DoubleValue
0.000000

@<SCITEGIC>MOL_PROPERTY
U
SciTegic.value.DoubleValue
44.664

@<SCITEGIC>MOL_PROPERTY
W
SciTegic.value.DoubleValue
-60.529

@<SCITEGIC>MOL_PROPERTY
W(PB)
SciTegic.value.DoubleValue
-62.309

@<SCITEGIC>MOL_PROPERTY
W(SA)
SciTegic.value.DoubleValue
1.780

@<SCITEGIC>MOL_PROPERTY
Valence
SciTegic.value.DoubleValue
0.872

@<SCITEGIC>MOL_PROPERTY
Coulomb
SciTegic.value.DoubleValue
43.648

@<SCITEGIC>MOL_PROPERTY
VdW
SciTegic.value.DoubleValue
0.144

@<SCITEGIC>MOL_PROPERTY
VdW6
SciTegic.value.DoubleValue
-2.370

@<SCITEGIC>MOL_PROPERTY
VdW12
SciTegic.value.DoubleValue
2.515

@<SCITEGIC>MOL_PROPERTY
Bond
SciTegic.value.DoubleValue
0.080

@<SCITEGIC>MOL_PROPERTY
Angle
SciTegic.value.DoubleValue
0.376

@<SCITEGIC>MOL_PROPERTY
Pdih
SciTegic.value.DoubleValue
0.416

@<SCITEGIC>MOL_PROPERTY
Idih
SciTegic.value.DoubleValue
0.000

@<SCITEGIC>MOL_PROPERTY
Tether
SciTegic.value.DoubleValue
0.000

@<TRIPOS>MOLECULE
guest-1_confgen4.mol2 : confsearch ligand conformer 386
          17          16           1
SMALL
USER_CHARGES
 
@<TRIPOS>ATOM
       1    N1      20.045983   21.491815   21.893112 N.4        1 MOL1        -0.5891
       2    H1      20.142841   21.923248   20.968920 H          1 MOL1         0.3726
       3    H2      20.965080   21.536407   22.343578 H          1 MOL1         0.3726
       4    H3      19.419767   22.094170   22.437047 H          1 MOL1         0.3726
       5    C1      19.525457   20.071038   21.804790 C.3        1 MOL1         0.0314
       6    H4      18.534420   20.102244   21.344051 H          1 MOL1         0.0999
       7    H5      19.418301   19.688722   22.823215 H          1 MOL1         0.0999
       8    C2      20.444178   19.137625   20.993216 C.3        1 MOL1        -0.1308
       9    H6      20.577413   19.551576   19.984866 H          1 MOL1         0.1025
      10    H7      21.440028   19.107605   21.455028 H          1 MOL1         0.1025
      11    C3      19.882741   17.701180   20.877375 C.3        1 MOL1        -0.1243
      12    H8      20.541008   17.112335   20.223214 H          1 MOL1         0.1025
      13    H9      18.900304   17.726138   20.385056 H          1 MOL1         0.1025
      14    C4      19.760851   16.988057   22.243595 C.3        1 MOL1        -0.2258
      15    H10     20.729155   16.954904   22.759747 H          1 MOL1         0.1036
      16    H11     19.417870   15.954034   22.108802 H          1 MOL1         0.1036
      17    H12     19.039983   17.492675   22.899187 H          1 MOL1         0.1036
@<TRIPOS>BOND
    1     1     2    1
    2     1     3    1
    3     1     4    1
    4     1     5    1
    5     5     6    1
    6     5     7    1
    7     5     8    1
    8     8     9    1
    9     8    10    1
   10     8    11    1
   11    11    12    1
   12    11    13    1
   13    11    14    1
   14    14    15    1
   15    14    16    1
   16    14    17    1
@<TRIPOS>SUBSTRUCTURE
       1 MOL1            1 RESIDUE      1      MOL     
@<SCITEGIC>MOL_PROPERTY
VConf Rank
SciTegic.value.IntegerValue
386

@<SCITEGIC>MOL_PROPERTY
Conf_Id
SciTegic.value.IntegerValue
36

@<SCITEGIC>MOL_PROPERTY
Delta U+W
SciTegic.value.DoubleValue
0.275

@<SCITEGIC>MOL_PROPERTY
U+W
SciTegic.value.DoubleValue
-15.590

@<SCITEGIC>MOL_PROPERTY
Grad RMS
SciTegic.value.DoubleValue
0.000000

@<SCITEGIC>MOL_PROPERTY
U
SciTegic.value.DoubleValue
45.174

@<SCITEGIC>MOL_PROPERTY
W
SciTegic.value.DoubleValue
-60.765

@<SCITEGIC>MOL_PROPERTY
W(PB)
SciTegic.value.DoubleValue
-62.518

@<SCITEGIC>MOL_PROPERTY
W(SA)
SciTegic.value.DoubleValue
1.754

@<SCITEGIC>MOL_PROPERTY
Valence
SciTegic.value.DoubleValue
1.161

@<SCITEGIC>MOL_PROPERTY
Coulomb
SciTegic.value.DoubleValue
43.789

@<SCITEGIC>MOL_PROPERTY
VdW
SciTegic.value.DoubleValue
0.224

@<SCITEGIC>MOL_PROPERTY
VdW6
SciTegic.value.DoubleValue
-2.897

@<SCITEGIC>MOL_PROPERTY
VdW12
SciTegic.value.DoubleValue
3.121

@<SCITEGIC>MOL_PROPERTY
Bond
SciTegic.value.DoubleValue
0.100

@<SCITEGIC>MOL_PROPERTY
Angle
SciTegic.value.DoubleValue
0.500

@<SCITEGIC>MOL_PROPERTY
Pdih
SciTegic.value.DoubleValue
0.561

@<SCITEGIC>MOL_PROPERTY
Idih
SciTegic.value.DoubleValue
0.000

@<SCITEGIC>MOL_PROPERTY
Tether
SciTegic.value.DoubleValue
0.000

@<TRIPOS>MOLECULE
guest-1_confgen4.mol2 : confsearch ligand conformer 387
          17          16           1
SMALL
USER_CHARGES
 
@<TRIPOS>ATOM
       1    N1      18.647524   19.154357   22.928419 N.4        1 MOL1        -0.5891
       2    H1      18.906237   20.066947   22.544895 H          1 MOL1         0.3726
       3    H2      19.142429   19.050676   23.819373 H          1 MOL1         0.3726
       4    H3      17.646632   19.190749   23.146856 H          1 MOL1         0.3726
       5    C1      18.974667   18.027465   21.967627 C.3        1 MOL1         0.0314
       6    H4      18.369386   18.152205   21.065753 H          1 MOL1         0.0999
       7    H5      18.670694   17.095655   22.452260 H          1 MOL1         0.0999
       8    C2      20.466969   17.932147   21.586102 C.3        1 MOL1        -0.1308
       9    H6      21.091952   18.056619   22.480324 H          1 MOL1         0.1025
      10    H7      20.656083   16.912095   21.226137 H          1 MOL1         0.1025
      11    C3      20.910977   18.919068   20.476350 C.3        1 MOL1        -0.1243
      12    H8      20.320822   18.741683   19.566254 H          1 MOL1         0.1025
      13    H9      21.953647   18.694791   20.210776 H          1 MOL1         0.1025
      14    C4      20.813482   20.410277   20.870903 C.3        1 MOL1        -0.2258
      15    H10     19.770520   20.739723   20.944204 H          1 MOL1         0.1036
      16    H11     21.296736   21.037449   20.110458 H          1 MOL1         0.1036
      17    H12     21.314441   20.602811   21.828569 H          1 MOL1         0.1036
@<TRIPOS>BOND
    1     1     2    1
    2     1     3    1
    3     1     4    1
    4     1     5    1
    5     5     6    1
    6     5     7    1
    7     5     8    1
    8     8     9    1
    9     8    10    1
   10     8    11    1
   11    11    12    1
   12    11    13    1
   13    11    14    1
   14    14    15    1
   15    14    16    1
   16    14    17    1
@<TRIPOS>SUBSTRUCTURE
       1 MOL1            1 RESIDUE      1      MOL     
@<SCITEGIC>MOL_PROPERTY
VConf Rank
SciTegic.value.IntegerValue
387

@<SCITEGIC>MOL_PROPERTY
Conf_Id
SciTegic.value.IntegerValue
19

@<SCITEGIC>MOL_PROPERTY
Delta U+W
SciTegic.value.DoubleValue
2.662

@<SCITEGIC>MOL_PROPERTY
U+W
SciTegic.value.DoubleValue
-13.203

@<SCITEGIC>MOL_PROPERTY
Grad RMS
SciTegic.value.DoubleValue
0.000000

@<SCITEGIC>MOL_PROPERTY
U
SciTegic.value.DoubleValue
47.423

@<SCITEGIC>MOL_PROPERTY
W
SciTegic.value.DoubleValue
-60.626

@<SCITEGIC>MOL_PROPERTY
W(PB)
SciTegic.value.DoubleValue
-62.328

@<SCITEGIC>MOL_PROPERTY
W(SA)
SciTegic.value.DoubleValue
1.702

@<SCITEGIC>MOL_PROPERTY
Valence
SciTegic.value.DoubleValue
2.414

@<SCITEGIC>MOL_PROPERTY
Coulomb
SciTegic.value.DoubleValue
44.831

@<SCITEGIC>MOL_PROPERTY
VdW
SciTegic.value.DoubleValue
0.178

@<SCITEGIC>MOL_PROPERTY
VdW6
SciTegic.value.DoubleValue
-3.743

@<SCITEGIC>MOL_PROPERTY
VdW12
SciTegic.value.DoubleValue
3.921

@<SCITEGIC>MOL_PROPERTY
Bond
SciTegic.value.DoubleValue
0.138

@<SCITEGIC>MOL_PROPERTY
Angle
SciTegic.value.DoubleValue
0.941

@<SCITEGIC>MOL_PROPERTY
Pdih
SciTegic.value.DoubleValue
1.335

@<SCITEGIC>MOL_PROPERTY
Idih
SciTegic.value.DoubleValue
0.000

@<SCITEGIC>MOL_PROPERTY
Tether
SciTegic.value.DoubleValue
0.000

@<TRIPOS>MOLECULE
guest-1_confgen4.mol2 : confsearch ligand conformer 388
          17          16           1
SMALL
USER_CHARGES
 
@<TRIPOS>ATOM
       1    N1      18.590173   19.359982   22.904602 N.4        1 MOL1        -0.5891
       2    H1      17.596461   19.514116   23.103610 H          1 MOL1         0.3726
       3    H2      19.102144   19.572902   23.766015 H          1 MOL1         0.3726
       4    H3      18.710125   18.360331   22.722523 H          1 MOL1         0.3726
       5    C1      19.070073   20.205091   21.740332 C.3        1 MOL1         0.0314
       6    H4      18.909098   21.250745   22.016430 H          1 MOL1         0.0999
       7    H5      18.445673   19.985533   20.870147 H          1 MOL1         0.0999
       8    C2      20.557145   20.003334   21.380438 C.3        1 MOL1        -0.1308
       9    H6      20.889933   20.888996   20.823033 H          1 MOL1         0.1025
      10    H7      21.164651   19.977153   22.294757 H          1 MOL1         0.1025
      11    C3      20.843434   18.755212   20.506976 C.3        1 MOL1        -0.1243
      12    H8      21.905489   18.766909   20.224321 H          1 MOL1         0.1025
      13    H9      20.278138   18.824423   19.566938 H          1 MOL1         0.1025
      14    C4      20.532575   17.407492   21.196829 C.3        1 MOL1        -0.2258
      15    H10     21.007745   17.346319   22.184566 H          1 MOL1         0.1036
      16    H11     20.913029   16.573904   20.592230 H          1 MOL1         0.1036
      17    H12     19.453325   17.254403   21.312855 H          1 MOL1         0.1036
@<TRIPOS>BOND
    1     1     2    1
    2     1     3    1
    3     1     4    1
    4     1     5    1
    5     5     6    1
    6     5     7    1
    7     5     8    1
    8     8     9    1
    9     8    10    1
   10     8    11    1
   11    11    12    1
   12    11    13    1
   13    11    14    1
   14    14    15    1
   15    14    16    1
   16    14    17    1
@<TRIPOS>SUBSTRUCTURE
       1 MOL1            1 RESIDUE      1      MOL     
@<SCITEGIC>MOL_PROPERTY
VConf Rank
SciTegic.value.IntegerValue
388

@<SCITEGIC>MOL_PROPERTY
Conf_Id
SciTegic.value.IntegerValue
44

@<SCITEGIC>MOL_PROPERTY
Delta U+W
SciTegic.value.DoubleValue
2.712

@<SCITEGIC>MOL_PROPERTY
U+W
SciTegic.value.DoubleValue
-13.153

@<SCITEGIC>MOL_PROPERTY
Grad RMS
SciTegic.value.DoubleValue
0.000000

@<SCITEGIC>MOL_PROPERTY
U
SciTegic.value.DoubleValue
47.423

@<SCITEGIC>MOL_PROPERTY
W
SciTegic.value.DoubleValue
-60.576

@<SCITEGIC>MOL_PROPERTY
W(PB)
SciTegic.value.DoubleValue
-62.262

@<SCITEGIC>MOL_PROPERTY
W(SA)
SciTegic.value.DoubleValue
1.687

@<SCITEGIC>MOL_PROPERTY
Valence
SciTegic.value.DoubleValue
2.414

@<SCITEGIC>MOL_PROPERTY
Coulomb
SciTegic.value.DoubleValue
44.831

@<SCITEGIC>MOL_PROPERTY
VdW
SciTegic.value.DoubleValue
0.178

@<SCITEGIC>MOL_PROPERTY
VdW6
SciTegic.value.DoubleValue
-3.743

@<SCITEGIC>MOL_PROPERTY
VdW12
SciTegic.value.DoubleValue
3.922

@<SCITEGIC>MOL_PROPERTY
Bond
SciTegic.value.DoubleValue
0.138

@<SCITEGIC>MOL_PROPERTY
Angle
SciTegic.value.DoubleValue
0.941

@<SCITEGIC>MOL_PROPERTY
Pdih
SciTegic.value.DoubleValue
1.335

@<SCITEGIC>MOL_PROPERTY
Idih
SciTegic.value.DoubleValue
0.000

@<SCITEGIC>MOL_PROPERTY
Tether
SciTegic.value.DoubleValue
0.000

@<TRIPOS>MOLECULE
guest-1_confgen4.mol2 : confsearch ligand conformer 389
          17          16           1
SMALL
USER_CHARGES
 
@<TRIPOS>ATOM
       1    N1      21.242556   19.354235   23.046146 N.4        1 MOL1        -0.5891
       2    H1      21.740700   19.448982   22.156583 H          1 MOL1         0.3726
       3    H2      21.549705   18.475179   23.473109 H          1 MOL1         0.3726
       4    H3      21.570302   20.111142   23.654704 H          1 MOL1         0.3726
       5    C1      19.738676   19.395281   22.855048 C.3        1 MOL1         0.0314
       6    H4      19.477402   20.365939   22.425673 H          1 MOL1         0.0999
       7    H5      19.275499   19.327269   23.843167 H          1 MOL1         0.0999
       8    C2      19.193991   18.265477   21.956837 C.3        1 MOL1        -0.1308
       9    H6      19.425790   17.295795   22.416984 H          1 MOL1         0.1025
      10    H7      18.098550   18.336352   21.928728 H          1 MOL1         0.1025
      11    C3      19.743320   18.291690   20.508698 C.3        1 MOL1        -0.1243
      12    H8      19.313601   17.447110   19.951983 H          1 MOL1         0.1025
      13    H9      20.829769   18.129657   20.513986 H          1 MOL1         0.1025
      14    C4      19.416354   19.604498   19.760750 C.3        1 MOL1        -0.2258
      15    H10     18.334291   19.788385   19.740969 H          1 MOL1         0.1036
      16    H11     19.766035   19.552889   18.721506 H          1 MOL1         0.1036
      17    H12     19.902103   20.468885   20.230678 H          1 MOL1         0.1036
@<TRIPOS>BOND
    1     1     2    1
    2     1     3    1
    3     1     4    1
    4     1     5    1
    5     5     6    1
    6     5     7    1
    7     5     8    1
    8     8     9    1
    9     8    10    1
   10     8    11    1
   11    11    12    1
   12    11    13    1
   13    11    14    1
   14    14    15    1
   15    14    16    1
   16    14    17    1
@<TRIPOS>SUBSTRUCTURE
       1 MOL1            1 RESIDUE      1      MOL     
@<SCITEGIC>MOL_PROPERTY
VConf Rank
SciTegic.value.IntegerValue
389

@<SCITEGIC>MOL_PROPERTY
Conf_Id
SciTegic.value.IntegerValue
1

@<SCITEGIC>MOL_PROPERTY
Delta U+W
SciTegic.value.DoubleValue
0.685

@<SCITEGIC>MOL_PROPERTY
U+W
SciTegic.value.DoubleValue
-15.179

@<SCITEGIC>MOL_PROPERTY
Grad RMS
SciTegic.value.DoubleValue
0.000000

@<SCITEGIC>MOL_PROPERTY
U
SciTegic.value.DoubleValue
45.697

@<SCITEGIC>MOL_PROPERTY
W
SciTegic.value.DoubleValue
-60.876

@<SCITEGIC>MOL_PROPERTY
W(PB)
SciTegic.value.DoubleValue
-62.586

@<SCITEGIC>MOL_PROPERTY
W(SA)
SciTegic.value.DoubleValue
1.710

@<SCITEGIC>MOL_PROPERTY
Valence
SciTegic.value.DoubleValue
1.263

@<SCITEGIC>MOL_PROPERTY
Coulomb
SciTegic.value.DoubleValue
44.179

@<SCITEGIC>MOL_PROPERTY
VdW
SciTegic.value.DoubleValue
0.255

@<SCITEGIC>MOL_PROPERTY
VdW6
SciTegic.value.DoubleValue
-3.552

@<SCITEGIC>MOL_PROPERTY
VdW12
SciTegic.value.DoubleValue
3.807

@<SCITEGIC>MOL_PROPERTY
Bond
SciTegic.value.DoubleValue
0.125

@<SCITEGIC>MOL_PROPERTY
Angle
SciTegic.value.DoubleValue
0.616

@<SCITEGIC>MOL_PROPERTY
Pdih
SciTegic.value.DoubleValue
0.521

@<SCITEGIC>MOL_PROPERTY
Idih
SciTegic.value.DoubleValue
0.000

@<SCITEGIC>MOL_PROPERTY
Tether
SciTegic.value.DoubleValue
0.000

@<TRIPOS>MOLECULE
guest-1_confgen4.mol2 : confsearch ligand conformer 390
          17          16           1
SMALL
USER_CHARGES
 
@<TRIPOS>ATOM
       1    N1      18.815159   19.201440   19.961353 N.4        1 MOL1        -0.5891
       2    H1      17.817635   19.257672   20.187544 H          1 MOL1         0.3726
       3    H2      19.088015   18.217534   20.038342 H          1 MOL1         0.3726
       4    H3      18.911802   19.462434   18.974839 H          1 MOL1         0.3726
       5    C1      19.650852   20.088485   20.863919 C.3        1 MOL1         0.0314
       6    H4      19.332355   21.121958   20.702581 H          1 MOL1         0.0999
       7    H5      20.694711   20.003993   20.550828 H          1 MOL1         0.0999
       8    C2      19.527737   19.744182   22.362658 C.3        1 MOL1        -0.1308
       9    H6      20.111636   20.473490   22.939698 H          1 MOL1         0.1025
      10    H7      18.483368   19.871425   22.677065 H          1 MOL1         0.1025
      11    C3      20.001952   18.313832   22.721512 C.3        1 MOL1        -0.1243
      12    H8      19.366994   17.569202   22.222503 H          1 MOL1         0.1025
      13    H9      19.864016   18.155635   23.800331 H          1 MOL1         0.1025
      14    C4      21.483760   18.059177   22.362075 C.3        1 MOL1        -0.2258
      15    H10     21.793753   17.059322   22.692473 H          1 MOL1         0.1036
      16    H11     22.139749   18.791356   22.850602 H          1 MOL1         0.1036
      17    H12     21.652492   18.116902   21.279418 H          1 MOL1         0.1036
@<TRIPOS>BOND
    1     1     2    1
    2     1     3    1
    3     1     4    1
    4     1     5    1
    5     5     6    1
    6     5     7    1
    7     5     8    1
    8     8     9    1
    9     8    10    1
   10     8    11    1
   11    11    12    1
   12    11    13    1
   13    11    14    1
   14    14    15    1
   15    14    16    1
   16    14    17    1
@<TRIPOS>SUBSTRUCTURE
       1 MOL1            1 RESIDUE      1      MOL     
@<SCITEGIC>MOL_PROPERTY
VConf Rank
SciTegic.value.IntegerValue
390

@<SCITEGIC>MOL_PROPERTY
Conf_Id
SciTegic.value.IntegerValue
43

@<SCITEGIC>MOL_PROPERTY
Delta U+W
SciTegic.value.DoubleValue
0.642

@<SCITEGIC>MOL_PROPERTY
U+W
SciTegic.value.DoubleValue
-15.222

@<SCITEGIC>MOL_PROPERTY
Grad RMS
SciTegic.value.DoubleValue
0.000000

@<SCITEGIC>MOL_PROPERTY
U
SciTegic.value.DoubleValue
45.697

@<SCITEGIC>MOL_PROPERTY
W
SciTegic.value.DoubleValue
-60.919

@<SCITEGIC>MOL_PROPERTY
W(PB)
SciTegic.value.DoubleValue
-62.631

@<SCITEGIC>MOL_PROPERTY
W(SA)
SciTegic.value.DoubleValue
1.712

@<SCITEGIC>MOL_PROPERTY
Valence
SciTegic.value.DoubleValue
1.262

@<SCITEGIC>MOL_PROPERTY
Coulomb
SciTegic.value.DoubleValue
44.179

@<SCITEGIC>MOL_PROPERTY
VdW
SciTegic.value.DoubleValue
0.255

@<SCITEGIC>MOL_PROPERTY
VdW6
SciTegic.value.DoubleValue
-3.552

@<SCITEGIC>MOL_PROPERTY
VdW12
SciTegic.value.DoubleValue
3.807

@<SCITEGIC>MOL_PROPERTY
Bond
SciTegic.value.DoubleValue
0.125

@<SCITEGIC>MOL_PROPERTY
Angle
SciTegic.value.DoubleValue
0.616

@<SCITEGIC>MOL_PROPERTY
Pdih
SciTegic.value.DoubleValue
0.521

@<SCITEGIC>MOL_PROPERTY
Idih
SciTegic.value.DoubleValue
0.000

@<SCITEGIC>MOL_PROPERTY
Tether
SciTegic.value.DoubleValue
0.000

@<TRIPOS>MOLECULE
guest-1_confgen4.mol2 : confsearch ligand conformer 391
          17          16           1
SMALL
USER_CHARGES
 
@<TRIPOS>ATOM
       1    N1      18.189226   19.168201   19.744066 N.4        1 MOL1        -0.5891
       2    H1      18.414277   20.107025   19.401053 H          1 MOL1         0.3726
       3    H2      17.366662   19.257962   20.348241 H          1 MOL1         0.3726
       4    H3      17.899889   18.616772   18.929745 H          1 MOL1         0.3726
       5    C1      19.359192   18.532533   20.468263 C.3        1 MOL1         0.0314
       6    H4      20.185823   18.440457   19.758526 H          1 MOL1         0.0999
       7    H5      19.059313   17.527414   20.777023 H          1 MOL1         0.0999
       8    C2      19.820241   19.335655   21.698178 C.3        1 MOL1        -0.1308
       9    H6      20.105881   20.349207   21.386549 H          1 MOL1         0.1025
      10    H7      18.983301   19.439178   22.401602 H          1 MOL1         0.1025
      11    C3      21.012241   18.654492   22.405761 C.3        1 MOL1        -0.1243
      12    H8      21.849183   18.547579   21.701188 H          1 MOL1         0.1025
      13    H9      20.727960   17.638697   22.715068 H          1 MOL1         0.1025
      14    C4      21.480296   19.454561   23.640576 C.3        1 MOL1        -0.2258
      15    H10     22.326976   18.954538   24.128590 H          1 MOL1         0.1036
      16    H11     20.673965   19.548646   24.379620 H          1 MOL1         0.1036
      17    H12     21.803981   20.464728   23.357734 H          1 MOL1         0.1036
@<TRIPOS>BOND
    1     1     2    1
    2     1     3    1
    3     1     4    1
    4     1     5    1
    5     5     6    1
    6     5     7    1
    7     5     8    1
    8     8     9    1
    9     8    10    1
   10     8    11    1
   11    11    12    1
   12    11    13    1
   13    11    14    1
   14    14    15    1
   15    14    16    1
   16    14    17    1
@<TRIPOS>SUBSTRUCTURE
       1 MOL1            1 RESIDUE      1      MOL     
@<SCITEGIC>MOL_PROPERTY
VConf Rank
SciTegic.value.IntegerValue
391

@<SCITEGIC>MOL_PROPERTY
Conf_Id
SciTegic.value.IntegerValue
7

@<SCITEGIC>MOL_PROPERTY
Delta U+W
SciTegic.value.DoubleValue
0.000

@<SCITEGIC>MOL_PROPERTY
U+W
SciTegic.value.DoubleValue
-15.865

@<SCITEGIC>MOL_PROPERTY
Grad RMS
SciTegic.value.DoubleValue
0.000000

@<SCITEGIC>MOL_PROPERTY
U
SciTegic.value.DoubleValue
44.664

@<SCITEGIC>MOL_PROPERTY
W
SciTegic.value.DoubleValue
-60.529

@<SCITEGIC>MOL_PROPERTY
W(PB)
SciTegic.value.DoubleValue
-62.309

@<SCITEGIC>MOL_PROPERTY
W(SA)
SciTegic.value.DoubleValue
1.780

@<SCITEGIC>MOL_PROPERTY
Valence
SciTegic.value.DoubleValue
0.872

@<SCITEGIC>MOL_PROPERTY
Coulomb
SciTegic.value.DoubleValue
43.648

@<SCITEGIC>MOL_PROPERTY
VdW
SciTegic.value.DoubleValue
0.144

@<SCITEGIC>MOL_PROPERTY
VdW6
SciTegic.value.DoubleValue
-2.370

@<SCITEGIC>MOL_PROPERTY
VdW12
SciTegic.value.DoubleValue
2.515

@<SCITEGIC>MOL_PROPERTY
Bond
SciTegic.value.DoubleValue
0.080

@<SCITEGIC>MOL_PROPERTY
Angle
SciTegic.value.DoubleValue
0.376

@<SCITEGIC>MOL_PROPERTY
Pdih
SciTegic.value.DoubleValue
0.416

@<SCITEGIC>MOL_PROPERTY
Idih
SciTegic.value.DoubleValue
0.000

@<SCITEGIC>MOL_PROPERTY
Tether
SciTegic.value.DoubleValue
0.000

@<TRIPOS>MOLECULE
guest-1_confgen4.mol2 : confsearch ligand conformer 392
          17          16           1
SMALL
USER_CHARGES
 
@<TRIPOS>ATOM
       1    N1      18.397359   20.890237   21.106286 N.4        1 MOL1        -0.5891
       2    H1      17.510072   20.712508   21.586684 H          1 MOL1         0.3726
       3    H2      18.252336   20.670984   20.116062 H          1 MOL1         0.3726
       4    H3      18.568765   21.899237   21.164440 H          1 MOL1         0.3726
       5    C1      19.537030   20.089446   21.703982 C.3        1 MOL1         0.0314
       6    H4      19.653856   20.394789   22.747306 H          1 MOL1         0.0999
       7    H5      20.451037   20.352511   21.165255 H          1 MOL1         0.0999
       8    C2      19.311597   18.566934   21.632607 C.3        1 MOL1        -0.1308
       9    H6      18.371011   18.318216   22.141836 H          1 MOL1         0.1025
      10    H7      19.192592   18.260518   20.584831 H          1 MOL1         0.1025
      11    C3      20.462669   17.762509   22.280635 C.3        1 MOL1        -0.1243
      12    H8      20.202952   16.694625   22.268239 H          1 MOL1         0.1025
      13    H9      20.561383   18.043995   23.338559 H          1 MOL1         0.1025
      14    C4      21.817191   17.960244   21.562214 C.3        1 MOL1        -0.2258
      15    H10     21.744191   17.691342   20.500382 H          1 MOL1         0.1036
      16    H11     22.589676   17.325781   22.015788 H          1 MOL1         0.1036
      17    H12     22.161665   18.999896   21.629694 H          1 MOL1         0.1036
@<TRIPOS>BOND
    1     1     2    1
    2     1     3    1
    3     1     4    1
    4     1     5    1
    5     5     6    1
    6     5     7    1
    7     5     8    1
    8     8     9    1
    9     8    10    1
   10     8    11    1
   11    11    12    1
   12    11    13    1
   13    11    14    1
   14    14    15    1
   15    14    16    1
   16    14    17    1
@<TRIPOS>SUBSTRUCTURE
       1 MOL1            1 RESIDUE      1      MOL     
@<SCITEGIC>MOL_PROPERTY
VConf Rank
SciTegic.value.IntegerValue
392

@<SCITEGIC>MOL_PROPERTY
Conf_Id
SciTegic.value.IntegerValue
36

@<SCITEGIC>MOL_PROPERTY
Delta U+W
SciTegic.value.DoubleValue
0.275

@<SCITEGIC>MOL_PROPERTY
U+W
SciTegic.value.DoubleValue
-15.590

@<SCITEGIC>MOL_PROPERTY
Grad RMS
SciTegic.value.DoubleValue
0.000000

@<SCITEGIC>MOL_PROPERTY
U
SciTegic.value.DoubleValue
45.174

@<SCITEGIC>MOL_PROPERTY
W
SciTegic.value.DoubleValue
-60.765

@<SCITEGIC>MOL_PROPERTY
W(PB)
SciTegic.value.DoubleValue
-62.518

@<SCITEGIC>MOL_PROPERTY
W(SA)
SciTegic.value.DoubleValue
1.754

@<SCITEGIC>MOL_PROPERTY
Valence
SciTegic.value.DoubleValue
1.161

@<SCITEGIC>MOL_PROPERTY
Coulomb
SciTegic.value.DoubleValue
43.789

@<SCITEGIC>MOL_PROPERTY
VdW
SciTegic.value.DoubleValue
0.224

@<SCITEGIC>MOL_PROPERTY
VdW6
SciTegic.value.DoubleValue
-2.897

@<SCITEGIC>MOL_PROPERTY
VdW12
SciTegic.value.DoubleValue
3.121

@<SCITEGIC>MOL_PROPERTY
Bond
SciTegic.value.DoubleValue
0.100

@<SCITEGIC>MOL_PROPERTY
Angle
SciTegic.value.DoubleValue
0.500

@<SCITEGIC>MOL_PROPERTY
Pdih
SciTegic.value.DoubleValue
0.561

@<SCITEGIC>MOL_PROPERTY
Idih
SciTegic.value.DoubleValue
0.000

@<SCITEGIC>MOL_PROPERTY
Tether
SciTegic.value.DoubleValue
0.000

@<TRIPOS>MOLECULE
guest-1_confgen4.mol2 : confsearch ligand conformer 393
          17          16           1
SMALL
USER_CHARGES
 
@<TRIPOS>ATOM
       1    N1      20.281304   19.799620   19.965119 N.4        1 MOL1        -0.5891
       2    H1      21.141408   19.673598   20.504734 H          1 MOL1         0.3726
       3    H2      20.000033   20.778999   20.070869 H          1 MOL1         0.3726
       4    H3      20.521097   19.664190   18.977708 H          1 MOL1         0.3726
       5    C1      19.189983   18.848049   20.416296 C.3        1 MOL1         0.0314
       6    H4      19.517048   17.823923   20.217562 H          1 MOL1         0.0999
       7    H5      18.313191   19.049266   19.794777 H          1 MOL1         0.0999
       8    C2      18.796994   18.991906   21.901718 C.3        1 MOL1        -0.1308
       9    H6      18.708378   20.054089   22.165618 H          1 MOL1         0.1025
      10    H7      17.792326   18.566141   22.025054 H          1 MOL1         0.1025
      11    C3      19.746018   18.268010   22.890673 C.3        1 MOL1        -0.1243
      12    H8      19.776752   17.194919   22.654977 H          1 MOL1         0.1025
      13    H9      19.318112   18.345159   23.900095 H          1 MOL1         0.1025
      14    C4      21.185548   18.829835   22.922134 C.3        1 MOL1        -0.2258
      15    H10     21.731020   18.590630   22.001853 H          1 MOL1         0.1036
      16    H11     21.748467   18.387650   23.754451 H          1 MOL1         0.1036
      17    H12     21.185520   19.918731   23.061624 H          1 MOL1         0.1036
@<TRIPOS>BOND
    1     1     2    1
    2     1     3    1
    3     1     4    1
    4     1     5    1
    5     5     6    1
    6     5     7    1
    7     5     8    1
    8     8     9    1
    9     8    10    1
   10     8    11    1
   11    11    12    1
   12    11    13    1
   13    11    14    1
   14    14    15    1
   15    14    16    1
   16    14    17    1
@<TRIPOS>SUBSTRUCTURE
       1 MOL1            1 RESIDUE      1      MOL     
@<SCITEGIC>MOL_PROPERTY
VConf Rank
SciTegic.value.IntegerValue
393

@<SCITEGIC>MOL_PROPERTY
Conf_Id
SciTegic.value.IntegerValue
19

@<SCITEGIC>MOL_PROPERTY
Delta U+W
SciTegic.value.DoubleValue
2.662

@<SCITEGIC>MOL_PROPERTY
U+W
SciTegic.value.DoubleValue
-13.203

@<SCITEGIC>MOL_PROPERTY
Grad RMS
SciTegic.value.DoubleValue
0.000000

@<SCITEGIC>MOL_PROPERTY
U
SciTegic.value.DoubleValue
47.423

@<SCITEGIC>MOL_PROPERTY
W
SciTegic.value.DoubleValue
-60.626

@<SCITEGIC>MOL_PROPERTY
W(PB)
SciTegic.value.DoubleValue
-62.328

@<SCITEGIC>MOL_PROPERTY
W(SA)
SciTegic.value.DoubleValue
1.702

@<SCITEGIC>MOL_PROPERTY
Valence
SciTegic.value.DoubleValue
2.414

@<SCITEGIC>MOL_PROPERTY
Coulomb
SciTegic.value.DoubleValue
44.831

@<SCITEGIC>MOL_PROPERTY
VdW
SciTegic.value.DoubleValue
0.178

@<SCITEGIC>MOL_PROPERTY
VdW6
SciTegic.value.DoubleValue
-3.743

@<SCITEGIC>MOL_PROPERTY
VdW12
SciTegic.value.DoubleValue
3.921

@<SCITEGIC>MOL_PROPERTY
Bond
SciTegic.value.DoubleValue
0.138

@<SCITEGIC>MOL_PROPERTY
Angle
SciTegic.value.DoubleValue
0.941

@<SCITEGIC>MOL_PROPERTY
Pdih
SciTegic.value.DoubleValue
1.335

@<SCITEGIC>MOL_PROPERTY
Idih
SciTegic.value.DoubleValue
0.000

@<SCITEGIC>MOL_PROPERTY
Tether
SciTegic.value.DoubleValue
0.000

@<TRIPOS>MOLECULE
guest-1_confgen4.mol2 : confsearch ligand conformer 394
          17          16           1
SMALL
USER_CHARGES
 
@<TRIPOS>ATOM
       1    N1      19.018301   17.892058   20.441152 N.4        1 MOL1        -0.5891
       2    H1      18.403134   17.795023   19.626917 H          1 MOL1         0.3726
       3    H2      19.100720   16.962441   20.863646 H          1 MOL1         0.3726
       4    H3      19.945238   18.146555   20.090634 H          1 MOL1         0.3726
       5    C1      18.490213   18.914955   21.428493 C.3        1 MOL1         0.0314
       6    H4      17.505121   18.568054   21.752206 H          1 MOL1         0.0999
       7    H5      18.358533   19.866673   20.906770 H          1 MOL1         0.0999
       8    C2      19.384256   19.119055   22.669719 C.3        1 MOL1        -0.1308
       9    H6      18.761939   19.554655   23.462701 H          1 MOL1         0.1025
      10    H7      19.723061   18.147228   23.052464 H          1 MOL1         0.1025
      11    C3      20.594426   20.060595   22.442356 C.3        1 MOL1        -0.1243
      12    H8      21.096456   20.217999   23.407333 H          1 MOL1         0.1025
      13    H9      20.238122   21.049263   22.120479 H          1 MOL1         0.1025
      14    C4      21.633456   19.532111   21.427468 C.3        1 MOL1        -0.2258
      15    H10     21.939784   18.505826   21.668413 H          1 MOL1         0.1036
      16    H11     22.533596   20.160347   21.442412 H          1 MOL1         0.1036
      17    H12     21.242857   19.554008   20.403440 H          1 MOL1         0.1036
@<TRIPOS>BOND
    1     1     2    1
    2     1     3    1
    3     1     4    1
    4     1     5    1
    5     5     6    1
    6     5     7    1
    7     5     8    1
    8     8     9    1
    9     8    10    1
   10     8    11    1
   11    11    12    1
   12    11    13    1
   13    11    14    1
   14    14    15    1
   15    14    16    1
   16    14    17    1
@<TRIPOS>SUBSTRUCTURE
       1 MOL1            1 RESIDUE      1      MOL     
@<SCITEGIC>MOL_PROPERTY
VConf Rank
SciTegic.value.IntegerValue
394

@<SCITEGIC>MOL_PROPERTY
Conf_Id
SciTegic.value.IntegerValue
44

@<SCITEGIC>MOL_PROPERTY
Delta U+W
SciTegic.value.DoubleValue
2.712

@<SCITEGIC>MOL_PROPERTY
U+W
SciTegic.value.DoubleValue
-13.153

@<SCITEGIC>MOL_PROPERTY
Grad RMS
SciTegic.value.DoubleValue
0.000000

@<SCITEGIC>MOL_PROPERTY
U
SciTegic.value.DoubleValue
47.423

@<SCITEGIC>MOL_PROPERTY
W
SciTegic.value.DoubleValue
-60.576

@<SCITEGIC>MOL_PROPERTY
W(PB)
SciTegic.value.DoubleValue
-62.262

@<SCITEGIC>MOL_PROPERTY
W(SA)
SciTegic.value.DoubleValue
1.687

@<SCITEGIC>MOL_PROPERTY
Valence
SciTegic.value.DoubleValue
2.414

@<SCITEGIC>MOL_PROPERTY
Coulomb
SciTegic.value.DoubleValue
44.831

@<SCITEGIC>MOL_PROPERTY
VdW
SciTegic.value.DoubleValue
0.178

@<SCITEGIC>MOL_PROPERTY
VdW6
SciTegic.value.DoubleValue
-3.743

@<SCITEGIC>MOL_PROPERTY
VdW12
SciTegic.value.DoubleValue
3.922

@<SCITEGIC>MOL_PROPERTY
Bond
SciTegic.value.DoubleValue
0.138

@<SCITEGIC>MOL_PROPERTY
Angle
SciTegic.value.DoubleValue
0.941

@<SCITEGIC>MOL_PROPERTY
Pdih
SciTegic.value.DoubleValue
1.335

@<SCITEGIC>MOL_PROPERTY
Idih
SciTegic.value.DoubleValue
0.000

@<SCITEGIC>MOL_PROPERTY
Tether
SciTegic.value.DoubleValue
0.000

@<TRIPOS>MOLECULE
guest-1_confgen4.mol2 : confsearch ligand conformer 395
          17          16           1
SMALL
USER_CHARGES
 
@<TRIPOS>ATOM
       1    N1      19.167787   17.404713   20.755473 N.4        1 MOL1        -0.5891
       2    H1      20.100019   17.547957   20.356886 H          1 MOL1         0.3726
       3    H2      18.487442   17.636965   20.025700 H          1 MOL1         0.3726
       4    H3      19.073133   16.401284   20.942124 H          1 MOL1         0.3726
       5    C1      18.958944   18.233574   22.008163 C.3        1 MOL1         0.0314
       6    H4      19.694451   17.916083   22.751825 H          1 MOL1         0.0999
       7    H5      17.963585   18.003242   22.397709 H          1 MOL1         0.0999
       8    C2      19.077139   19.754073   21.775716 C.3        1 MOL1        -0.1308
       9    H6      18.308118   20.069841   21.058329 H          1 MOL1         0.1025
      10    H7      18.848500   20.272041   22.716587 H          1 MOL1         0.1025
      11    C3      20.469228   20.207738   21.269918 C.3        1 MOL1        -0.1243
      12    H8      20.453671   21.296418   21.120123 H          1 MOL1         0.1025
      13    H9      20.674051   19.769149   20.283844 H          1 MOL1         0.1025
      14    C4      21.613767   19.851488   22.246092 C.3        1 MOL1        -0.2258
      15    H10     21.432295   20.280246   23.240226 H          1 MOL1         0.1036
      16    H11     22.569557   20.248220   21.879981 H          1 MOL1         0.1036
      17    H12     21.726954   18.765730   22.356853 H          1 MOL1         0.1036
@<TRIPOS>BOND
    1     1     2    1
    2     1     3    1
    3     1     4    1
    4     1     5    1
    5     5     6    1
    6     5     7    1
    7     5     8    1
    8     8     9    1
    9     8    10    1
   10     8    11    1
   11    11    12    1
   12    11    13    1
   13    11    14    1
   14    14    15    1
   15    14    16    1
   16    14    17    1
@<TRIPOS>SUBSTRUCTURE
       1 MOL1            1 RESIDUE      1      MOL     
@<SCITEGIC>MOL_PROPERTY
VConf Rank
SciTegic.value.IntegerValue
395

@<SCITEGIC>MOL_PROPERTY
Conf_Id
SciTegic.value.IntegerValue
1

@<SCITEGIC>MOL_PROPERTY
Delta U+W
SciTegic.value.DoubleValue
0.685

@<SCITEGIC>MOL_PROPERTY
U+W
SciTegic.value.DoubleValue
-15.179

@<SCITEGIC>MOL_PROPERTY
Grad RMS
SciTegic.value.DoubleValue
0.000000

@<SCITEGIC>MOL_PROPERTY
U
SciTegic.value.DoubleValue
45.697

@<SCITEGIC>MOL_PROPERTY
W
SciTegic.value.DoubleValue
-60.876

@<SCITEGIC>MOL_PROPERTY
W(PB)
SciTegic.value.DoubleValue
-62.586

@<SCITEGIC>MOL_PROPERTY
W(SA)
SciTegic.value.DoubleValue
1.710

@<SCITEGIC>MOL_PROPERTY
Valence
SciTegic.value.DoubleValue
1.263

@<SCITEGIC>MOL_PROPERTY
Coulomb
SciTegic.value.DoubleValue
44.179

@<SCITEGIC>MOL_PROPERTY
VdW
SciTegic.value.DoubleValue
0.255

@<SCITEGIC>MOL_PROPERTY
VdW6
SciTegic.value.DoubleValue
-3.552

@<SCITEGIC>MOL_PROPERTY
VdW12
SciTegic.value.DoubleValue
3.807

@<SCITEGIC>MOL_PROPERTY
Bond
SciTegic.value.DoubleValue
0.125

@<SCITEGIC>MOL_PROPERTY
Angle
SciTegic.value.DoubleValue
0.616

@<SCITEGIC>MOL_PROPERTY
Pdih
SciTegic.value.DoubleValue
0.521

@<SCITEGIC>MOL_PROPERTY
Idih
SciTegic.value.DoubleValue
0.000

@<SCITEGIC>MOL_PROPERTY
Tether
SciTegic.value.DoubleValue
0.000

@<TRIPOS>MOLECULE
guest-1_confgen4.mol2 : confsearch ligand conformer 396
          17          16           1
SMALL
USER_CHARGES
 
@<TRIPOS>ATOM
       1    N1      21.357345   19.994130   20.616485 N.4        1 MOL1        -0.5891
       2    H1      22.209882   20.075749   21.178533 H          1 MOL1         0.3726
       3    H2      20.699817   20.700081   20.959615 H          1 MOL1         0.3726
       4    H3      21.606451   20.258098   19.657874 H          1 MOL1         0.3726
       5    C1      20.767902   18.598381   20.682050 C.3        1 MOL1         0.0314
       6    H4      21.505439   17.905664   20.267657 H          1 MOL1         0.0999
       7    H5      19.883108   18.573072   20.040719 H          1 MOL1         0.0999
       8    C2      20.389622   18.148500   22.108385 C.3        1 MOL1        -0.1308
       9    H6      20.034555   17.110239   22.066623 H          1 MOL1         0.1025
      10    H7      21.291869   18.137992   22.734154 H          1 MOL1         0.1025
      11    C3      19.307851   19.029987   22.780926 C.3        1 MOL1        -0.1243
      12    H8      19.683767   20.053567   22.913685 H          1 MOL1         0.1025
      13    H9      19.115465   18.644229   23.791907 H          1 MOL1         0.1025
      14    C4      17.977578   19.061869   21.994063 C.3        1 MOL1        -0.2258
      15    H10     17.221943   19.642746   22.538642 H          1 MOL1         0.1036
      16    H11     17.580452   18.048774   21.849163 H          1 MOL1         0.1036
      17    H12     18.102940   19.524963   21.007261 H          1 MOL1         0.1036
@<TRIPOS>BOND
    1     1     2    1
    2     1     3    1
    3     1     4    1
    4     1     5    1
    5     5     6    1
    6     5     7    1
    7     5     8    1
    8     8     9    1
    9     8    10    1
   10     8    11    1
   11    11    12    1
   12    11    13    1
   13    11    14    1
   14    14    15    1
   15    14    16    1
   16    14    17    1
@<TRIPOS>SUBSTRUCTURE
       1 MOL1            1 RESIDUE      1      MOL     
@<SCITEGIC>MOL_PROPERTY
VConf Rank
SciTegic.value.IntegerValue
396

@<SCITEGIC>MOL_PROPERTY
Conf_Id
SciTegic.value.IntegerValue
43

@<SCITEGIC>MOL_PROPERTY
Delta U+W
SciTegic.value.DoubleValue
0.642

@<SCITEGIC>MOL_PROPERTY
U+W
SciTegic.value.DoubleValue
-15.222

@<SCITEGIC>MOL_PROPERTY
Grad RMS
SciTegic.value.DoubleValue
0.000000

@<SCITEGIC>MOL_PROPERTY
U
SciTegic.value.DoubleValue
45.697

@<SCITEGIC>MOL_PROPERTY
W
SciTegic.value.DoubleValue
-60.919

@<SCITEGIC>MOL_PROPERTY
W(PB)
SciTegic.value.DoubleValue
-62.631

@<SCITEGIC>MOL_PROPERTY
W(SA)
SciTegic.value.DoubleValue
1.712

@<SCITEGIC>MOL_PROPERTY
Valence
SciTegic.value.DoubleValue
1.262

@<SCITEGIC>MOL_PROPERTY
Coulomb
SciTegic.value.DoubleValue
44.179

@<SCITEGIC>MOL_PROPERTY
VdW
SciTegic.value.DoubleValue
0.255

@<SCITEGIC>MOL_PROPERTY
VdW6
SciTegic.value.DoubleValue
-3.552

@<SCITEGIC>MOL_PROPERTY
VdW12
SciTegic.value.DoubleValue
3.807

@<SCITEGIC>MOL_PROPERTY
Bond
SciTegic.value.DoubleValue
0.125

@<SCITEGIC>MOL_PROPERTY
Angle
SciTegic.value.DoubleValue
0.616

@<SCITEGIC>MOL_PROPERTY
Pdih
SciTegic.value.DoubleValue
0.521

@<SCITEGIC>MOL_PROPERTY
Idih
SciTegic.value.DoubleValue
0.000

@<SCITEGIC>MOL_PROPERTY
Tether
SciTegic.value.DoubleValue
0.000

@<TRIPOS>MOLECULE
guest-1_confgen4.mol2 : confsearch ligand conformer 397
          17          16           1
SMALL
USER_CHARGES
 
@<TRIPOS>ATOM
       1    N1      20.343836   20.704522   19.669387 N.4        1 MOL1        -0.5891
       2    H1      21.175730   20.253534   19.276630 H          1 MOL1         0.3726
       3    H2      20.668614   21.496804   20.231975 H          1 MOL1         0.3726
       4    H3      19.819197   21.096541   18.880728 H          1 MOL1         0.3726
       5    C1      19.503638   19.738444   20.480632 C.3        1 MOL1         0.0314
       6    H4      19.168056   18.940123   19.813106 H          1 MOL1         0.0999
       7    H5      18.622712   20.277031   20.840377 H          1 MOL1         0.0999
       8    C2      20.261538   19.130101   21.674687 C.3        1 MOL1        -0.1308
       9    H6      21.153793   18.603254   21.310952 H          1 MOL1         0.1025
      10    H7      20.610194   19.935542   22.334758 H          1 MOL1         0.1025
      11    C3      19.370853   18.153067   22.473190 C.3        1 MOL1        -0.1243
      12    H8      19.018830   17.348402   21.812190 H          1 MOL1         0.1025
      13    H9      18.475936   18.679070   22.834810 H          1 MOL1         0.1025
      14    C4      20.124493   17.538772   23.672617 C.3        1 MOL1        -0.2258
      15    H10     19.475097   16.848280   24.226290 H          1 MOL1         0.1036
      16    H11     20.459338   18.317641   24.370077 H          1 MOL1         0.1036
      17    H12     21.006554   16.976520   23.339378 H          1 MOL1         0.1036
@<TRIPOS>BOND
    1     1     2    1
    2     1     3    1
    3     1     4    1
    4     1     5    1
    5     5     6    1
    6     5     7    1
    7     5     8    1
    8     8     9    1
    9     8    10    1
   10     8    11    1
   11    11    12    1
   12    11    13    1
   13    11    14    1
   14    14    15    1
   15    14    16    1
   16    14    17    1
@<TRIPOS>SUBSTRUCTURE
       1 MOL1            1 RESIDUE      1      MOL     
@<SCITEGIC>MOL_PROPERTY
VConf Rank
SciTegic.value.IntegerValue
397

@<SCITEGIC>MOL_PROPERTY
Conf_Id
SciTegic.value.IntegerValue
7

@<SCITEGIC>MOL_PROPERTY
Delta U+W
SciTegic.value.DoubleValue
0.000

@<SCITEGIC>MOL_PROPERTY
U+W
SciTegic.value.DoubleValue
-15.865

@<SCITEGIC>MOL_PROPERTY
Grad RMS
SciTegic.value.DoubleValue
0.000000

@<SCITEGIC>MOL_PROPERTY
U
SciTegic.value.DoubleValue
44.664

@<SCITEGIC>MOL_PROPERTY
W
SciTegic.value.DoubleValue
-60.529

@<SCITEGIC>MOL_PROPERTY
W(PB)
SciTegic.value.DoubleValue
-62.309

@<SCITEGIC>MOL_PROPERTY
W(SA)
SciTegic.value.DoubleValue
1.780

@<SCITEGIC>MOL_PROPERTY
Valence
SciTegic.value.DoubleValue
0.872

@<SCITEGIC>MOL_PROPERTY
Coulomb
SciTegic.value.DoubleValue
43.648

@<SCITEGIC>MOL_PROPERTY
VdW
SciTegic.value.DoubleValue
0.144

@<SCITEGIC>MOL_PROPERTY
VdW6
SciTegic.value.DoubleValue
-2.370

@<SCITEGIC>MOL_PROPERTY
VdW12
SciTegic.value.DoubleValue
2.515

@<SCITEGIC>MOL_PROPERTY
Bond
SciTegic.value.DoubleValue
0.080

@<SCITEGIC>MOL_PROPERTY
Angle
SciTegic.value.DoubleValue
0.376

@<SCITEGIC>MOL_PROPERTY
Pdih
SciTegic.value.DoubleValue
0.416

@<SCITEGIC>MOL_PROPERTY
Idih
SciTegic.value.DoubleValue
0.000

@<SCITEGIC>MOL_PROPERTY
Tether
SciTegic.value.DoubleValue
0.000

@<TRIPOS>MOLECULE
guest-1_confgen4.mol2 : confsearch ligand conformer 398
          17          16           1
SMALL
USER_CHARGES
 
@<TRIPOS>ATOM
       1    N1      19.567714   19.667793   23.937743 N.4        1 MOL1        -0.5891
       2    H1      20.477969   19.800103   24.388940 H          1 MOL1         0.3726
       3    H2      19.205894   18.761787   24.250610 H          1 MOL1         0.3726
       4    H3      18.941440   20.384530   24.318418 H          1 MOL1         0.3726
       5    C1      19.665439   19.749089   22.427380 C.3        1 MOL1         0.0314
       6    H4      20.027395   20.746961   22.165375 H          1 MOL1         0.0999
       7    H5      18.658416   19.631343   22.018871 H          1 MOL1         0.0999
       8    C2      20.599827   18.684216   21.821638 C.3        1 MOL1        -0.1308
       9    H6      21.597997   18.785556   22.268026 H          1 MOL1         0.1025
      10    H7      20.237214   17.682016   22.086205 H          1 MOL1         0.1025
      11    C3      20.721659   18.802553   20.284381 C.3        1 MOL1        -0.1243
      12    H8      21.460056   18.070869   19.927465 H          1 MOL1         0.1025
      13    H9      21.116109   19.793690   20.019356 H          1 MOL1         0.1025
      14    C4      19.381252   18.564374   19.551894 C.3        1 MOL1        -0.2258
      15    H10     18.962090   17.581739   19.804592 H          1 MOL1         0.1036
      16    H11     19.525934   18.596842   18.464227 H          1 MOL1         0.1036
      17    H12     18.638976   19.330314   19.809681 H          1 MOL1         0.1036
@<TRIPOS>BOND
    1     1     2    1
    2     1     3    1
    3     1     4    1
    4     1     5    1
    5     5     6    1
    6     5     7    1
    7     5     8    1
    8     8     9    1
    9     8    10    1
   10     8    11    1
   11    11    12    1
   12    11    13    1
   13    11    14    1
   14    14    15    1
   15    14    16    1
   16    14    17    1
@<TRIPOS>SUBSTRUCTURE
       1 MOL1            1 RESIDUE      1      MOL     
@<SCITEGIC>MOL_PROPERTY
VConf Rank
SciTegic.value.IntegerValue
398

@<SCITEGIC>MOL_PROPERTY
Conf_Id
SciTegic.value.IntegerValue
36

@<SCITEGIC>MOL_PROPERTY
Delta U+W
SciTegic.value.DoubleValue
0.275

@<SCITEGIC>MOL_PROPERTY
U+W
SciTegic.value.DoubleValue
-15.590

@<SCITEGIC>MOL_PROPERTY
Grad RMS
SciTegic.value.DoubleValue
0.000000

@<SCITEGIC>MOL_PROPERTY
U
SciTegic.value.DoubleValue
45.174

@<SCITEGIC>MOL_PROPERTY
W
SciTegic.value.DoubleValue
-60.765

@<SCITEGIC>MOL_PROPERTY
W(PB)
SciTegic.value.DoubleValue
-62.518

@<SCITEGIC>MOL_PROPERTY
W(SA)
SciTegic.value.DoubleValue
1.754

@<SCITEGIC>MOL_PROPERTY
Valence
SciTegic.value.DoubleValue
1.161

@<SCITEGIC>MOL_PROPERTY
Coulomb
SciTegic.value.DoubleValue
43.789

@<SCITEGIC>MOL_PROPERTY
VdW
SciTegic.value.DoubleValue
0.224

@<SCITEGIC>MOL_PROPERTY
VdW6
SciTegic.value.DoubleValue
-2.897

@<SCITEGIC>MOL_PROPERTY
VdW12
SciTegic.value.DoubleValue
3.121

@<SCITEGIC>MOL_PROPERTY
Bond
SciTegic.value.DoubleValue
0.100

@<SCITEGIC>MOL_PROPERTY
Angle
SciTegic.value.DoubleValue
0.500

@<SCITEGIC>MOL_PROPERTY
Pdih
SciTegic.value.DoubleValue
0.561

@<SCITEGIC>MOL_PROPERTY
Idih
SciTegic.value.DoubleValue
0.000

@<SCITEGIC>MOL_PROPERTY
Tether
SciTegic.value.DoubleValue
0.000

@<TRIPOS>MOLECULE
guest-1_confgen4.mol2 : confsearch ligand conformer 399
          17          16           1
SMALL
USER_CHARGES
 
@<TRIPOS>ATOM
       1    N1      20.321789   19.331780   23.387392 N.4        1 MOL1        -0.5891
       2    H1      21.163225   19.392380   22.808462 H          1 MOL1         0.3726
       3    H2      20.341821   18.419761   23.853545 H          1 MOL1         0.3726
       4    H3      20.407558   20.042541   24.121071 H          1 MOL1         0.3726
       5    C1      19.060064   19.517550   22.566679 C.3        1 MOL1         0.0314
       6    H4      19.061190   20.528551   22.150531 H          1 MOL1         0.0999
       7    H5      18.215315   19.437010   23.256207 H          1 MOL1         0.0999
       8    C2      18.883356   18.486043   21.432492 C.3        1 MOL1        -0.1308
       9    H6      19.127209   17.479909   21.798493 H          1 MOL1         0.1025
      10    H7      17.818235   18.459831   21.166640 H          1 MOL1         0.1025
      11    C3      19.688044   18.801406   20.145741 C.3        1 MOL1        -0.1243
      12    H8      19.388912   19.783891   19.754250 H          1 MOL1         0.1025
      13    H9      19.408792   18.069418   19.374897 H          1 MOL1         0.1025
      14    C4      21.222591   18.764510   20.326535 C.3        1 MOL1        -0.2258
      15    H10     21.577526   19.610665   20.926301 H          1 MOL1         0.1036
      16    H11     21.722288   18.828903   19.351182 H          1 MOL1         0.1036
      17    H12     21.545282   17.830568   20.804841 H          1 MOL1         0.1036
@<TRIPOS>BOND
    1     1     2    1
    2     1     3    1
    3     1     4    1
    4     1     5    1
    5     5     6    1
    6     5     7    1
    7     5     8    1
    8     8     9    1
    9     8    10    1
   10     8    11    1
   11    11    12    1
   12    11    13    1
   13    11    14    1
   14    14    15    1
   15    14    16    1
   16    14    17    1
@<TRIPOS>SUBSTRUCTURE
       1 MOL1            1 RESIDUE      1      MOL     
@<SCITEGIC>MOL_PROPERTY
VConf Rank
SciTegic.value.IntegerValue
399

@<SCITEGIC>MOL_PROPERTY
Conf_Id
SciTegic.value.IntegerValue
19

@<SCITEGIC>MOL_PROPERTY
Delta U+W
SciTegic.value.DoubleValue
2.662

@<SCITEGIC>MOL_PROPERTY
U+W
SciTegic.value.DoubleValue
-13.203

@<SCITEGIC>MOL_PROPERTY
Grad RMS
SciTegic.value.DoubleValue
0.000000

@<SCITEGIC>MOL_PROPERTY
U
SciTegic.value.DoubleValue
47.423

@<SCITEGIC>MOL_PROPERTY
W
SciTegic.value.DoubleValue
-60.626

@<SCITEGIC>MOL_PROPERTY
W(PB)
SciTegic.value.DoubleValue
-62.328

@<SCITEGIC>MOL_PROPERTY
W(SA)
SciTegic.value.DoubleValue
1.702

@<SCITEGIC>MOL_PROPERTY
Valence
SciTegic.value.DoubleValue
2.414

@<SCITEGIC>MOL_PROPERTY
Coulomb
SciTegic.value.DoubleValue
44.831

@<SCITEGIC>MOL_PROPERTY
VdW
SciTegic.value.DoubleValue
0.178

@<SCITEGIC>MOL_PROPERTY
VdW6
SciTegic.value.DoubleValue
-3.743

@<SCITEGIC>MOL_PROPERTY
VdW12
SciTegic.value.DoubleValue
3.921

@<SCITEGIC>MOL_PROPERTY
Bond
SciTegic.value.DoubleValue
0.138

@<SCITEGIC>MOL_PROPERTY
Angle
SciTegic.value.DoubleValue
0.941

@<SCITEGIC>MOL_PROPERTY
Pdih
SciTegic.value.DoubleValue
1.335

@<SCITEGIC>MOL_PROPERTY
Idih
SciTegic.value.DoubleValue
0.000

@<SCITEGIC>MOL_PROPERTY
Tether
SciTegic.value.DoubleValue
0.000

@<TRIPOS>MOLECULE
guest-1_confgen4.mol2 : confsearch ligand conformer 400
          17          16           1
SMALL
USER_CHARGES
 
@<TRIPOS>ATOM
       1    N1      20.816275   18.604498   23.140048 N.4        1 MOL1        -0.5891
       2    H1      21.733769   18.526443   23.590530 H          1 MOL1         0.3726
       3    H2      20.145629   18.122984   23.746562 H          1 MOL1         0.3726
       4    H3      20.563566   19.595952   23.139458 H          1 MOL1         0.3726
       5    C1      20.824952   18.025658   21.738296 C.3        1 MOL1         0.0314
       6    H4      21.100464   16.971456   21.829339 H          1 MOL1         0.0999
       7    H5      21.603102   18.529290   21.158521 H          1 MOL1         0.0999
       8    C2      19.473607   18.130212   21.000362 C.3        1 MOL1        -0.1308
       9    H6      19.470130   17.378494   20.199891 H          1 MOL1         0.1025
      10    H7      18.653954   17.853679   21.676698 H          1 MOL1         0.1025
      11    C3      19.198134   19.513102   20.356596 C.3        1 MOL1        -0.1243
      12    H8      18.268848   19.444501   19.773749 H          1 MOL1         0.1025
      13    H9      19.992604   19.749633   19.634868 H          1 MOL1         0.1025
      14    C4      19.059777   20.673001   21.368708 C.3        1 MOL1        -0.2258
      15    H10     18.339641   20.427690   22.160149 H          1 MOL1         0.1036
      16    H11     18.702183   21.579097   20.862475 H          1 MOL1         0.1036
      17    H12     20.022578   20.921154   21.830351 H          1 MOL1         0.1036
@<TRIPOS>BOND
    1     1     2    1
    2     1     3    1
    3     1     4    1
    4     1     5    1
    5     5     6    1
    6     5     7    1
    7     5     8    1
    8     8     9    1
    9     8    10    1
   10     8    11    1
   11    11    12    1
   12    11    13    1
   13    11    14    1
   14    14    15    1
   15    14    16    1
   16    14    17    1
@<TRIPOS>SUBSTRUCTURE
       1 MOL1            1 RESIDUE      1      MOL     
@<SCITEGIC>MOL_PROPERTY
VConf Rank
SciTegic.value.IntegerValue
400

@<SCITEGIC>MOL_PROPERTY
Conf_Id
SciTegic.value.IntegerValue
44

@<SCITEGIC>MOL_PROPERTY
Delta U+W
SciTegic.value.DoubleValue
2.712

@<SCITEGIC>MOL_PROPERTY
U+W
SciTegic.value.DoubleValue
-13.153

@<SCITEGIC>MOL_PROPERTY
Grad RMS
SciTegic.value.DoubleValue
0.000000

@<SCITEGIC>MOL_PROPERTY
U
SciTegic.value.DoubleValue
47.423

@<SCITEGIC>MOL_PROPERTY
W
SciTegic.value.DoubleValue
-60.576

@<SCITEGIC>MOL_PROPERTY
W(PB)
SciTegic.value.DoubleValue
-62.262

@<SCITEGIC>MOL_PROPERTY
W(SA)
SciTegic.value.DoubleValue
1.687

@<SCITEGIC>MOL_PROPERTY
Valence
SciTegic.value.DoubleValue
2.414

@<SCITEGIC>MOL_PROPERTY
Coulomb
SciTegic.value.DoubleValue
44.831

@<SCITEGIC>MOL_PROPERTY
VdW
SciTegic.value.DoubleValue
0.178

@<SCITEGIC>MOL_PROPERTY
VdW6
SciTegic.value.DoubleValue
-3.743

@<SCITEGIC>MOL_PROPERTY
VdW12
SciTegic.value.DoubleValue
3.922

@<SCITEGIC>MOL_PROPERTY
Bond
SciTegic.value.DoubleValue
0.138

@<SCITEGIC>MOL_PROPERTY
Angle
SciTegic.value.DoubleValue
0.941

@<SCITEGIC>MOL_PROPERTY
Pdih
SciTegic.value.DoubleValue
1.335

@<SCITEGIC>MOL_PROPERTY
Idih
SciTegic.value.DoubleValue
0.000

@<SCITEGIC>MOL_PROPERTY
Tether
SciTegic.value.DoubleValue
0.000

@<TRIPOS>MOLECULE
guest-1_confgen4.mol2 : confsearch ligand conformer 401
          17          16           1
SMALL
USER_CHARGES
 
@<TRIPOS>ATOM
       1    N1      21.183600   20.104717   20.499305 N.4        1 MOL1        -0.5891
       2    H1      20.295162   20.073816   19.991202 H          1 MOL1         0.3726
       3    H2      21.842077   19.503682   19.994781 H          1 MOL1         0.3726
       4    H3      21.538130   21.063526   20.424057 H          1 MOL1         0.3726
       5    C1      21.019418   19.675903   21.944649 C.3        1 MOL1         0.0314
       6    H4      20.330985   20.372930   22.429436 H          1 MOL1         0.0999
       7    H5      21.993598   19.769109   22.432321 H          1 MOL1         0.0999
       8    C2      20.501069   18.232440   22.110930 C.3        1 MOL1        -0.1308
       9    H6      21.219243   17.537035   21.656630 H          1 MOL1         0.1025
      10    H7      20.475758   17.989478   23.181506 H          1 MOL1         0.1025
      11    C3      19.097416   17.992922   21.501058 C.3        1 MOL1        -0.1243
      12    H8      18.820108   16.940499   21.654061 H          1 MOL1         0.1025
      13    H9      19.127674   18.143188   20.413327 H          1 MOL1         0.1025
      14    C4      18.005865   18.895067   22.121098 C.3        1 MOL1        -0.2258
      15    H10     17.955283   18.761927   23.209575 H          1 MOL1         0.1036
      16    H11     17.019991   18.646315   21.707404 H          1 MOL1         0.1036
      17    H12     18.193263   19.956211   21.914206 H          1 MOL1         0.1036
@<TRIPOS>BOND
    1     1     2    1
    2     1     3    1
    3     1     4    1
    4     1     5    1
    5     5     6    1
    6     5     7    1
    7     5     8    1
    8     8     9    1
    9     8    10    1
   10     8    11    1
   11    11    12    1
   12    11    13    1
   13    11    14    1
   14    14    15    1
   15    14    16    1
   16    14    17    1
@<TRIPOS>SUBSTRUCTURE
       1 MOL1            1 RESIDUE      1      MOL     
@<SCITEGIC>MOL_PROPERTY
VConf Rank
SciTegic.value.IntegerValue
401

@<SCITEGIC>MOL_PROPERTY
Conf_Id
SciTegic.value.IntegerValue
1

@<SCITEGIC>MOL_PROPERTY
Delta U+W
SciTegic.value.DoubleValue
0.685

@<SCITEGIC>MOL_PROPERTY
U+W
SciTegic.value.DoubleValue
-15.179

@<SCITEGIC>MOL_PROPERTY
Grad RMS
SciTegic.value.DoubleValue
0.000000

@<SCITEGIC>MOL_PROPERTY
U
SciTegic.value.DoubleValue
45.697

@<SCITEGIC>MOL_PROPERTY
W
SciTegic.value.DoubleValue
-60.876

@<SCITEGIC>MOL_PROPERTY
W(PB)
SciTegic.value.DoubleValue
-62.586

@<SCITEGIC>MOL_PROPERTY
W(SA)
SciTegic.value.DoubleValue
1.710

@<SCITEGIC>MOL_PROPERTY
Valence
SciTegic.value.DoubleValue
1.263

@<SCITEGIC>MOL_PROPERTY
Coulomb
SciTegic.value.DoubleValue
44.179

@<SCITEGIC>MOL_PROPERTY
VdW
SciTegic.value.DoubleValue
0.255

@<SCITEGIC>MOL_PROPERTY
VdW6
SciTegic.value.DoubleValue
-3.552

@<SCITEGIC>MOL_PROPERTY
VdW12
SciTegic.value.DoubleValue
3.807

@<SCITEGIC>MOL_PROPERTY
Bond
SciTegic.value.DoubleValue
0.125

@<SCITEGIC>MOL_PROPERTY
Angle
SciTegic.value.DoubleValue
0.616

@<SCITEGIC>MOL_PROPERTY
Pdih
SciTegic.value.DoubleValue
0.521

@<SCITEGIC>MOL_PROPERTY
Idih
SciTegic.value.DoubleValue
0.000

@<SCITEGIC>MOL_PROPERTY
Tether
SciTegic.value.DoubleValue
0.000

@<TRIPOS>MOLECULE
guest-1_confgen4.mol2 : confsearch ligand conformer 402
          17          16           1
SMALL
USER_CHARGES
 
@<TRIPOS>ATOM
       1    N1      21.015976   17.371082   21.528785 N.4        1 MOL1        -0.5891
       2    H1      20.835341   16.767752   22.336709 H          1 MOL1         0.3726
       3    H2      21.633542   18.123997   21.845297 H          1 MOL1         0.3726
       4    H3      21.547138   16.812537   20.853092 H          1 MOL1         0.3726
       5    C1      19.732687   17.912014   20.928434 C.3        1 MOL1         0.0314
       6    H4      19.142901   17.059741   20.580123 H          1 MOL1         0.0999
       7    H5      19.994665   18.519587   20.058361 H          1 MOL1         0.0999
       8    C2      18.889175   18.748825   21.912383 C.3        1 MOL1        -0.1308
       9    H6      17.955684   19.041675   21.413751 H          1 MOL1         0.1025
      10    H7      18.596747   18.118611   22.762715 H          1 MOL1         0.1025
      11    C3      19.606691   20.017927   22.435939 C.3        1 MOL1        -0.1243
      12    H8      20.495441   19.736617   23.017008 H          1 MOL1         0.1025
      13    H9      18.938713   20.538353   23.136558 H          1 MOL1         0.1025
      14    C4      20.010096   20.994462   21.307471 C.3        1 MOL1        -0.2258
      15    H10     20.454598   21.905947   21.727687 H          1 MOL1         0.1036
      16    H11     19.137061   21.291729   20.712064 H          1 MOL1         0.1036
      17    H12     20.749532   20.547183   20.631362 H          1 MOL1         0.1036
@<TRIPOS>BOND
    1     1     2    1
    2     1     3    1
    3     1     4    1
    4     1     5    1
    5     5     6    1
    6     5     7    1
    7     5     8    1
    8     8     9    1
    9     8    10    1
   10     8    11    1
   11    11    12    1
   12    11    13    1
   13    11    14    1
   14    14    15    1
   15    14    16    1
   16    14    17    1
@<TRIPOS>SUBSTRUCTURE
       1 MOL1            1 RESIDUE      1      MOL     
@<SCITEGIC>MOL_PROPERTY
VConf Rank
SciTegic.value.IntegerValue
402

@<SCITEGIC>MOL_PROPERTY
Conf_Id
SciTegic.value.IntegerValue
43

@<SCITEGIC>MOL_PROPERTY
Delta U+W
SciTegic.value.DoubleValue
0.642

@<SCITEGIC>MOL_PROPERTY
U+W
SciTegic.value.DoubleValue
-15.222

@<SCITEGIC>MOL_PROPERTY
Grad RMS
SciTegic.value.DoubleValue
0.000000

@<SCITEGIC>MOL_PROPERTY
U
SciTegic.value.DoubleValue
45.697

@<SCITEGIC>MOL_PROPERTY
W
SciTegic.value.DoubleValue
-60.919

@<SCITEGIC>MOL_PROPERTY
W(PB)
SciTegic.value.DoubleValue
-62.631

@<SCITEGIC>MOL_PROPERTY
W(SA)
SciTegic.value.DoubleValue
1.712

@<SCITEGIC>MOL_PROPERTY
Valence
SciTegic.value.DoubleValue
1.262

@<SCITEGIC>MOL_PROPERTY
Coulomb
SciTegic.value.DoubleValue
44.179

@<SCITEGIC>MOL_PROPERTY
VdW
SciTegic.value.DoubleValue
0.255

@<SCITEGIC>MOL_PROPERTY
VdW6
SciTegic.value.DoubleValue
-3.552

@<SCITEGIC>MOL_PROPERTY
VdW12
SciTegic.value.DoubleValue
3.807

@<SCITEGIC>MOL_PROPERTY
Bond
SciTegic.value.DoubleValue
0.125

@<SCITEGIC>MOL_PROPERTY
Angle
SciTegic.value.DoubleValue
0.616

@<SCITEGIC>MOL_PROPERTY
Pdih
SciTegic.value.DoubleValue
0.521

@<SCITEGIC>MOL_PROPERTY
Idih
SciTegic.value.DoubleValue
0.000

@<SCITEGIC>MOL_PROPERTY
Tether
SciTegic.value.DoubleValue
0.000

@<TRIPOS>MOLECULE
guest-1_confgen4.mol2 : confsearch ligand conformer 403
          17          16           1
SMALL
USER_CHARGES
 
@<TRIPOS>ATOM
       1    N1      22.244006   19.582376   22.643075 N.4        1 MOL1        -0.5891
       2    H1      22.018606   20.516872   22.997485 H          1 MOL1         0.3726
       3    H2      22.761841   19.709393   21.768197 H          1 MOL1         0.3726
       4    H3      22.894395   19.160177   23.313635 H          1 MOL1         0.3726
       5    C1      21.003201   18.733449   22.450508 C.3        1 MOL1         0.0314
       6    H4      20.520855   18.614779   23.424563 H          1 MOL1         0.0999
       7    H5      21.320077   17.746455   22.102720 H          1 MOL1         0.0999
       8    C2      20.003439   19.338798   21.448366 C.3        1 MOL1        -0.1308
       9    H6      19.699368   20.336185   21.792970 H          1 MOL1         0.1025
      10    H7      20.495788   19.470710   20.475647 H          1 MOL1         0.1025
      11    C3      18.755591   18.444000   21.281829 C.3        1 MOL1        -0.1243
      12    H8      18.264187   18.308866   22.255784 H          1 MOL1         0.1025
      13    H9      19.059617   17.444477   20.940001 H          1 MOL1         0.1025
      14    C4      17.748074   19.044950   20.277975 C.3        1 MOL1        -0.2258
      15    H10     16.869601   18.394936   20.173981 H          1 MOL1         0.1036
      16    H11     18.200710   19.159989   19.284449 H          1 MOL1         0.1036
      17    H12     17.399051   20.031233   20.610597 H          1 MOL1         0.1036
@<TRIPOS>BOND
    1     1     2    1
    2     1     3    1
    3     1     4    1
    4     1     5    1
    5     5     6    1
    6     5     7    1
    7     5     8    1
    8     8     9    1
    9     8    10    1
   10     8    11    1
   11    11    12    1
   12    11    13    1
   13    11    14    1
   14    14    15    1
   15    14    16    1
   16    14    17    1
@<TRIPOS>SUBSTRUCTURE
       1 MOL1            1 RESIDUE      1      MOL     
@<SCITEGIC>MOL_PROPERTY
VConf Rank
SciTegic.value.IntegerValue
403

@<SCITEGIC>MOL_PROPERTY
Conf_Id
SciTegic.value.IntegerValue
7

@<SCITEGIC>MOL_PROPERTY
Delta U+W
SciTegic.value.DoubleValue
0.000

@<SCITEGIC>MOL_PROPERTY
U+W
SciTegic.value.DoubleValue
-15.865

@<SCITEGIC>MOL_PROPERTY
Grad RMS
SciTegic.value.DoubleValue
0.000000

@<SCITEGIC>MOL_PROPERTY
U
SciTegic.value.DoubleValue
44.664

@<SCITEGIC>MOL_PROPERTY
W
SciTegic.value.DoubleValue
-60.529

@<SCITEGIC>MOL_PROPERTY
W(PB)
SciTegic.value.DoubleValue
-62.309

@<SCITEGIC>MOL_PROPERTY
W(SA)
SciTegic.value.DoubleValue
1.780

@<SCITEGIC>MOL_PROPERTY
Valence
SciTegic.value.DoubleValue
0.872

@<SCITEGIC>MOL_PROPERTY
Coulomb
SciTegic.value.DoubleValue
43.648

@<SCITEGIC>MOL_PROPERTY
VdW
SciTegic.value.DoubleValue
0.144

@<SCITEGIC>MOL_PROPERTY
VdW6
SciTegic.value.DoubleValue
-2.370

@<SCITEGIC>MOL_PROPERTY
VdW12
SciTegic.value.DoubleValue
2.515

@<SCITEGIC>MOL_PROPERTY
Bond
SciTegic.value.DoubleValue
0.080

@<SCITEGIC>MOL_PROPERTY
Angle
SciTegic.value.DoubleValue
0.376

@<SCITEGIC>MOL_PROPERTY
Pdih
SciTegic.value.DoubleValue
0.416

@<SCITEGIC>MOL_PROPERTY
Idih
SciTegic.value.DoubleValue
0.000

@<SCITEGIC>MOL_PROPERTY
Tether
SciTegic.value.DoubleValue
0.000

@<TRIPOS>MOLECULE
guest-1_confgen4.mol2 : confsearch ligand conformer 404
          17          16           1
SMALL
USER_CHARGES
 
@<TRIPOS>ATOM
       1    N1      19.282609   16.968118   22.559477 N.4        1 MOL1        -0.5891
       2    H1      18.450238   16.630677   22.066589 H          1 MOL1         0.3726
       3    H2      18.972865   17.307599   23.475150 H          1 MOL1         0.3726
       4    H3      19.876556   16.150586   22.731852 H          1 MOL1         0.3726
       5    C1      20.012315   18.039515   21.773987 C.3        1 MOL1         0.0314
       6    H4      20.338403   17.601171   20.826923 H          1 MOL1         0.0999
       7    H5      20.900472   18.326715   22.342784 H          1 MOL1         0.0999
       8    C2      19.147321   19.284195   21.497373 C.3        1 MOL1        -0.1308
       9    H6      18.238945   18.979114   20.961039 H          1 MOL1         0.1025
      10    H7      18.818430   19.723470   22.448560 H          1 MOL1         0.1025
      11    C3      19.890018   20.353001   20.661873 C.3        1 MOL1        -0.1243
      12    H8      19.195289   21.173330   20.432973 H          1 MOL1         0.1025
      13    H9      20.190805   19.924394   19.695434 H          1 MOL1         0.1025
      14    C4      21.130266   20.929138   21.382849 C.3        1 MOL1        -0.2258
      15    H10     20.857666   21.358897   22.355537 H          1 MOL1         0.1036
      16    H11     21.589505   21.724969   20.782216 H          1 MOL1         0.1036
      17    H12     21.893678   20.158884   21.550186 H          1 MOL1         0.1036
@<TRIPOS>BOND
    1     1     2    1
    2     1     3    1
    3     1     4    1
    4     1     5    1
    5     5     6    1
    6     5     7    1
    7     5     8    1
    8     8     9    1
    9     8    10    1
   10     8    11    1
   11    11    12    1
   12    11    13    1
   13    11    14    1
   14    14    15    1
   15    14    16    1
   16    14    17    1
@<TRIPOS>SUBSTRUCTURE
       1 MOL1            1 RESIDUE      1      MOL     
@<SCITEGIC>MOL_PROPERTY
VConf Rank
SciTegic.value.IntegerValue
404

@<SCITEGIC>MOL_PROPERTY
Conf_Id
SciTegic.value.IntegerValue
36

@<SCITEGIC>MOL_PROPERTY
Delta U+W
SciTegic.value.DoubleValue
0.275

@<SCITEGIC>MOL_PROPERTY
U+W
SciTegic.value.DoubleValue
-15.590

@<SCITEGIC>MOL_PROPERTY
Grad RMS
SciTegic.value.DoubleValue
0.000000

@<SCITEGIC>MOL_PROPERTY
U
SciTegic.value.DoubleValue
45.174

@<SCITEGIC>MOL_PROPERTY
W
SciTegic.value.DoubleValue
-60.765

@<SCITEGIC>MOL_PROPERTY
W(PB)
SciTegic.value.DoubleValue
-62.518

@<SCITEGIC>MOL_PROPERTY
W(SA)
SciTegic.value.DoubleValue
1.754

@<SCITEGIC>MOL_PROPERTY
Valence
SciTegic.value.DoubleValue
1.161

@<SCITEGIC>MOL_PROPERTY
Coulomb
SciTegic.value.DoubleValue
43.789

@<SCITEGIC>MOL_PROPERTY
VdW
SciTegic.value.DoubleValue
0.224

@<SCITEGIC>MOL_PROPERTY
VdW6
SciTegic.value.DoubleValue
-2.897

@<SCITEGIC>MOL_PROPERTY
VdW12
SciTegic.value.DoubleValue
3.121

@<SCITEGIC>MOL_PROPERTY
Bond
SciTegic.value.DoubleValue
0.100

@<SCITEGIC>MOL_PROPERTY
Angle
SciTegic.value.DoubleValue
0.500

@<SCITEGIC>MOL_PROPERTY
Pdih
SciTegic.value.DoubleValue
0.561

@<SCITEGIC>MOL_PROPERTY
Idih
SciTegic.value.DoubleValue
0.000

@<SCITEGIC>MOL_PROPERTY
Tether
SciTegic.value.DoubleValue
0.000

@<TRIPOS>MOLECULE
guest-1_confgen4.mol2 : confsearch ligand conformer 405
          17          16           1
SMALL
USER_CHARGES
 
@<TRIPOS>ATOM
       1    N1      20.511019   19.256575   19.853712 N.4        1 MOL1        -0.5891
       2    H1      19.557756   18.885794   19.879344 H          1 MOL1         0.3726
       3    H2      21.133483   18.472628   19.635895 H          1 MOL1         0.3726
       4    H3      20.562000   19.905505   19.061807 H          1 MOL1         0.3726
       5    C1      20.887913   19.929375   21.159591 C.3        1 MOL1         0.0314
       6    H4      20.236937   20.795542   21.305488 H          1 MOL1         0.0999
       7    H5      21.913249   20.292383   21.048018 H          1 MOL1         0.0999
       8    C2      20.813035   19.005913   22.393780 C.3        1 MOL1        -0.1308
       9    H6      21.257526   18.029486   22.159796 H          1 MOL1         0.1025
      10    H7      21.444183   19.443835   23.178461 H          1 MOL1         0.1025
      11    C3      19.387592   18.824071   22.974942 C.3        1 MOL1        -0.1243
      12    H8      18.978604   19.802523   23.263701 H          1 MOL1         0.1025
      13    H9      19.464266   18.240908   23.903398 H          1 MOL1         0.1025
      14    C4      18.396927   18.111343   22.026530 C.3        1 MOL1        -0.2258
      15    H10     18.123360   18.748679   21.177625 H          1 MOL1         0.1036
      16    H11     17.468329   17.868142   22.559180 H          1 MOL1         0.1036
      17    H12     18.817020   17.172014   21.643993 H          1 MOL1         0.1036
@<TRIPOS>BOND
    1     1     2    1
    2     1     3    1
    3     1     4    1
    4     1     5    1
    5     5     6    1
    6     5     7    1
    7     5     8    1
    8     8     9    1
    9     8    10    1
   10     8    11    1
   11    11    12    1
   12    11    13    1
   13    11    14    1
   14    14    15    1
   15    14    16    1
   16    14    17    1
@<TRIPOS>SUBSTRUCTURE
       1 MOL1            1 RESIDUE      1      MOL     
@<SCITEGIC>MOL_PROPERTY
VConf Rank
SciTegic.value.IntegerValue
405

@<SCITEGIC>MOL_PROPERTY
Conf_Id
SciTegic.value.IntegerValue
19

@<SCITEGIC>MOL_PROPERTY
Delta U+W
SciTegic.value.DoubleValue
2.662

@<SCITEGIC>MOL_PROPERTY
U+W
SciTegic.value.DoubleValue
-13.203

@<SCITEGIC>MOL_PROPERTY
Grad RMS
SciTegic.value.DoubleValue
0.000000

@<SCITEGIC>MOL_PROPERTY
U
SciTegic.value.DoubleValue
47.423

@<SCITEGIC>MOL_PROPERTY
W
SciTegic.value.DoubleValue
-60.626

@<SCITEGIC>MOL_PROPERTY
W(PB)
SciTegic.value.DoubleValue
-62.328

@<SCITEGIC>MOL_PROPERTY
W(SA)
SciTegic.value.DoubleValue
1.702

@<SCITEGIC>MOL_PROPERTY
Valence
SciTegic.value.DoubleValue
2.414

@<SCITEGIC>MOL_PROPERTY
Coulomb
SciTegic.value.DoubleValue
44.831

@<SCITEGIC>MOL_PROPERTY
VdW
SciTegic.value.DoubleValue
0.178

@<SCITEGIC>MOL_PROPERTY
VdW6
SciTegic.value.DoubleValue
-3.743

@<SCITEGIC>MOL_PROPERTY
VdW12
SciTegic.value.DoubleValue
3.921

@<SCITEGIC>MOL_PROPERTY
Bond
SciTegic.value.DoubleValue
0.138

@<SCITEGIC>MOL_PROPERTY
Angle
SciTegic.value.DoubleValue
0.941

@<SCITEGIC>MOL_PROPERTY
Pdih
SciTegic.value.DoubleValue
1.335

@<SCITEGIC>MOL_PROPERTY
Idih
SciTegic.value.DoubleValue
0.000

@<SCITEGIC>MOL_PROPERTY
Tether
SciTegic.value.DoubleValue
0.000

@<TRIPOS>MOLECULE
guest-1_confgen4.mol2 : confsearch ligand conformer 406
          17          16           1
SMALL
USER_CHARGES
 
@<TRIPOS>ATOM
       1    N1      18.241755   19.938735   21.593750 N.4        1 MOL1        -0.5891
       2    H1      17.247077   19.892390   21.837249 H          1 MOL1         0.3726
       3    H2      18.362790   20.760414   20.994022 H          1 MOL1         0.3726
       4    H3      18.756403   20.119541   22.459365 H          1 MOL1         0.3726
       5    C1      18.715582   18.669243   20.912636 C.3        1 MOL1         0.0314
       6    H4      18.120205   18.553073   20.002929 H          1 MOL1         0.0999
       7    H5      18.499878   17.821210   21.568084 H          1 MOL1         0.0999
       8    C2      20.212410   18.671563   20.536987 C.3        1 MOL1        -0.1308
       9    H6      20.360236   17.924706   19.745659 H          1 MOL1         0.1025
      10    H7      20.486970   19.638042   20.093970 H          1 MOL1         0.1025
      11    C3      21.168963   18.323054   21.705855 C.3        1 MOL1        -0.1243
      12    H8      22.190476   18.249863   21.306926 H          1 MOL1         0.1025
      13    H9      20.924257   17.326277   22.099017 H          1 MOL1         0.1025
      14    C4      21.164617   19.348219   22.862529 C.3        1 MOL1        -0.2258
      15    H10     21.312357   20.370230   22.489943 H          1 MOL1         0.1036
      16    H11     21.977536   19.130107   23.567331 H          1 MOL1         0.1036
      17    H12     20.227699   19.310180   23.430348 H          1 MOL1         0.1036
@<TRIPOS>BOND
    1     1     2    1
    2     1     3    1
    3     1     4    1
    4     1     5    1
    5     5     6    1
    6     5     7    1
    7     5     8    1
    8     8     9    1
    9     8    10    1
   10     8    11    1
   11    11    12    1
   12    11    13    1
   13    11    14    1
   14    14    15    1
   15    14    16    1
   16    14    17    1
@<TRIPOS>SUBSTRUCTURE
       1 MOL1            1 RESIDUE      1      MOL     
@<SCITEGIC>MOL_PROPERTY
VConf Rank
SciTegic.value.IntegerValue
406

@<SCITEGIC>MOL_PROPERTY
Conf_Id
SciTegic.value.IntegerValue
44

@<SCITEGIC>MOL_PROPERTY
Delta U+W
SciTegic.value.DoubleValue
2.712

@<SCITEGIC>MOL_PROPERTY
U+W
SciTegic.value.DoubleValue
-13.153

@<SCITEGIC>MOL_PROPERTY
Grad RMS
SciTegic.value.DoubleValue
0.000000

@<SCITEGIC>MOL_PROPERTY
U
SciTegic.value.DoubleValue
47.423

@<SCITEGIC>MOL_PROPERTY
W
SciTegic.value.DoubleValue
-60.576

@<SCITEGIC>MOL_PROPERTY
W(PB)
SciTegic.value.DoubleValue
-62.262

@<SCITEGIC>MOL_PROPERTY
W(SA)
SciTegic.value.DoubleValue
1.687

@<SCITEGIC>MOL_PROPERTY
Valence
SciTegic.value.DoubleValue
2.414

@<SCITEGIC>MOL_PROPERTY
Coulomb
SciTegic.value.DoubleValue
44.831

@<SCITEGIC>MOL_PROPERTY
VdW
SciTegic.value.DoubleValue
0.178

@<SCITEGIC>MOL_PROPERTY
VdW6
SciTegic.value.DoubleValue
-3.743

@<SCITEGIC>MOL_PROPERTY
VdW12
SciTegic.value.DoubleValue
3.922

@<SCITEGIC>MOL_PROPERTY
Bond
SciTegic.value.DoubleValue
0.138

@<SCITEGIC>MOL_PROPERTY
Angle
SciTegic.value.DoubleValue
0.941

@<SCITEGIC>MOL_PROPERTY
Pdih
SciTegic.value.DoubleValue
1.335

@<SCITEGIC>MOL_PROPERTY
Idih
SciTegic.value.DoubleValue
0.000

@<SCITEGIC>MOL_PROPERTY
Tether
SciTegic.value.DoubleValue
0.000

@<TRIPOS>MOLECULE
guest-1_confgen4.mol2 : confsearch ligand conformer 407
          17          16           1
SMALL
USER_CHARGES
 
@<TRIPOS>ATOM
       1    N1      18.855422   17.450134   21.059289 N.4        1 MOL1        -0.5891
       2    H1      18.290193   18.277040   20.846710 H          1 MOL1         0.3726
       3    H2      18.427747   16.990951   21.868995 H          1 MOL1         0.3726
       4    H3      18.756414   16.808118   20.266396 H          1 MOL1         0.3726
       5    C1      20.305946   17.811587   21.314613 C.3        1 MOL1         0.0314
       6    H4      20.707092   18.267927   20.405965 H          1 MOL1         0.0999
       7    H5      20.853526   16.882777   21.496290 H          1 MOL1         0.0999
       8    C2      20.508855   18.766135   22.509430 C.3        1 MOL1        -0.1308
       9    H6      20.140030   18.282588   23.423705 H          1 MOL1         0.1025
      10    H7      21.586074   18.919057   22.657816 H          1 MOL1         0.1025
      11    C3      19.817617   20.142131   22.340961 C.3        1 MOL1        -0.1243
      12    H8      20.004064   20.744283   23.241270 H          1 MOL1         0.1025
      13    H9      18.728299   20.012913   22.283146 H          1 MOL1         0.1025
      14    C4      20.315774   20.922444   21.102918 C.3        1 MOL1        -0.2258
      15    H10     21.403591   21.065560   21.138117 H          1 MOL1         0.1036
      16    H11     19.848926   21.915001   21.059888 H          1 MOL1         0.1036
      17    H12     20.069071   20.400119   20.170040 H          1 MOL1         0.1036
@<TRIPOS>BOND
    1     1     2    1
    2     1     3    1
    3     1     4    1
    4     1     5    1
    5     5     6    1
    6     5     7    1
    7     5     8    1
    8     8     9    1
    9     8    10    1
   10     8    11    1
   11    11    12    1
   12    11    13    1
   13    11    14    1
   14    14    15    1
   15    14    16    1
   16    14    17    1
@<TRIPOS>SUBSTRUCTURE
       1 MOL1            1 RESIDUE      1      MOL     
@<SCITEGIC>MOL_PROPERTY
VConf Rank
SciTegic.value.IntegerValue
407

@<SCITEGIC>MOL_PROPERTY
Conf_Id
SciTegic.value.IntegerValue
1

@<SCITEGIC>MOL_PROPERTY
Delta U+W
SciTegic.value.DoubleValue
0.685

@<SCITEGIC>MOL_PROPERTY
U+W
SciTegic.value.DoubleValue
-15.179

@<SCITEGIC>MOL_PROPERTY
Grad RMS
SciTegic.value.DoubleValue
0.000000

@<SCITEGIC>MOL_PROPERTY
U
SciTegic.value.DoubleValue
45.697

@<SCITEGIC>MOL_PROPERTY
W
SciTegic.value.DoubleValue
-60.876

@<SCITEGIC>MOL_PROPERTY
W(PB)
SciTegic.value.DoubleValue
-62.586

@<SCITEGIC>MOL_PROPERTY
W(SA)
SciTegic.value.DoubleValue
1.710

@<SCITEGIC>MOL_PROPERTY
Valence
SciTegic.value.DoubleValue
1.263

@<SCITEGIC>MOL_PROPERTY
Coulomb
SciTegic.value.DoubleValue
44.179

@<SCITEGIC>MOL_PROPERTY
VdW
SciTegic.value.DoubleValue
0.255

@<SCITEGIC>MOL_PROPERTY
VdW6
SciTegic.value.DoubleValue
-3.552

@<SCITEGIC>MOL_PROPERTY
VdW12
SciTegic.value.DoubleValue
3.807

@<SCITEGIC>MOL_PROPERTY
Bond
SciTegic.value.DoubleValue
0.125

@<SCITEGIC>MOL_PROPERTY
Angle
SciTegic.value.DoubleValue
0.616

@<SCITEGIC>MOL_PROPERTY
Pdih
SciTegic.value.DoubleValue
0.521

@<SCITEGIC>MOL_PROPERTY
Idih
SciTegic.value.DoubleValue
0.000

@<SCITEGIC>MOL_PROPERTY
Tether
SciTegic.value.DoubleValue
0.000

@<TRIPOS>MOLECULE
guest-1_confgen4.mol2 : confsearch ligand conformer 408
          17          16           1
SMALL
USER_CHARGES
 
@<TRIPOS>ATOM
       1    N1      18.209717   18.029976   21.564871 N.4        1 MOL1        -0.5891
       2    H1      17.639285   18.289799   20.754639 H          1 MOL1         0.3726
       3    H2      18.109018   18.776886   22.258004 H          1 MOL1         0.3726
       4    H3      17.787029   17.188016   21.968734 H          1 MOL1         0.3726
       5    C1      19.661216   17.806486   21.186637 C.3        1 MOL1         0.0314
       6    H4      19.696184   16.975587   20.476762 H          1 MOL1         0.0999
       7    H5      20.203931   17.505109   22.086325 H          1 MOL1         0.0999
       8    C2      20.338854   19.042558   20.559856 C.3        1 MOL1        -0.1308
       9    H6      21.359619   18.769704   20.260869 H          1 MOL1         0.1025
      10    H7      19.811509   19.312666   19.635358 H          1 MOL1         0.1025
      11    C3      20.394979   20.273851   21.498113 C.3        1 MOL1        -0.1243
      12    H8      19.377998   20.616157   21.733125 H          1 MOL1         0.1025
      13    H9      20.878331   21.103897   20.963978 H          1 MOL1         0.1025
      14    C4      21.168583   20.001772   22.808573 C.3        1 MOL1        -0.2258
      15    H10     21.239319   20.916692   23.410973 H          1 MOL1         0.1036
      16    H11     22.190266   19.658822   22.599727 H          1 MOL1         0.1036
      17    H12     20.670150   19.240060   23.421197 H          1 MOL1         0.1036
@<TRIPOS>BOND
    1     1     2    1
    2     1     3    1
    3     1     4    1
    4     1     5    1
    5     5     6    1
    6     5     7    1
    7     5     8    1
    8     8     9    1
    9     8    10    1
   10     8    11    1
   11    11    12    1
   12    11    13    1
   13    11    14    1
   14    14    15    1
   15    14    16    1
   16    14    17    1
@<TRIPOS>SUBSTRUCTURE
       1 MOL1            1 RESIDUE      1      MOL     
@<SCITEGIC>MOL_PROPERTY
VConf Rank
SciTegic.value.IntegerValue
408

@<SCITEGIC>MOL_PROPERTY
Conf_Id
SciTegic.value.IntegerValue
43

@<SCITEGIC>MOL_PROPERTY
Delta U+W
SciTegic.value.DoubleValue
0.642

@<SCITEGIC>MOL_PROPERTY
U+W
SciTegic.value.DoubleValue
-15.222

@<SCITEGIC>MOL_PROPERTY
Grad RMS
SciTegic.value.DoubleValue
0.000000

@<SCITEGIC>MOL_PROPERTY
U
SciTegic.value.DoubleValue
45.697

@<SCITEGIC>MOL_PROPERTY
W
SciTegic.value.DoubleValue
-60.919

@<SCITEGIC>MOL_PROPERTY
W(PB)
SciTegic.value.DoubleValue
-62.631

@<SCITEGIC>MOL_PROPERTY
W(SA)
SciTegic.value.DoubleValue
1.712

@<SCITEGIC>MOL_PROPERTY
Valence
SciTegic.value.DoubleValue
1.262

@<SCITEGIC>MOL_PROPERTY
Coulomb
SciTegic.value.DoubleValue
44.179

@<SCITEGIC>MOL_PROPERTY
VdW
SciTegic.value.DoubleValue
0.255

@<SCITEGIC>MOL_PROPERTY
VdW6
SciTegic.value.DoubleValue
-3.552

@<SCITEGIC>MOL_PROPERTY
VdW12
SciTegic.value.DoubleValue
3.807

@<SCITEGIC>MOL_PROPERTY
Bond
SciTegic.value.DoubleValue
0.125

@<SCITEGIC>MOL_PROPERTY
Angle
SciTegic.value.DoubleValue
0.616

@<SCITEGIC>MOL_PROPERTY
Pdih
SciTegic.value.DoubleValue
0.521

@<SCITEGIC>MOL_PROPERTY
Idih
SciTegic.value.DoubleValue
0.000

@<SCITEGIC>MOL_PROPERTY
Tether
SciTegic.value.DoubleValue
0.000

@<TRIPOS>MOLECULE
guest-1_confgen4.mol2 : confsearch ligand conformer 409
          17          16           1
SMALL
USER_CHARGES
 
@<TRIPOS>ATOM
       1    N1      21.123520   21.226434   20.869817 N.4        1 MOL1        -0.5891
       2    H1      21.130958   21.688916   21.784012 H          1 MOL1         0.3726
       3    H2      20.343387   21.624178   20.337943 H          1 MOL1         0.3726
       4    H3      21.983942   21.507564   20.388623 H          1 MOL1         0.3726
       5    C1      21.015068   19.719918   20.996327 C.3        1 MOL1         0.0314
       6    H4      21.891108   19.363279   21.544857 H          1 MOL1         0.0999
       7    H5      21.044260   19.293656   19.989861 H          1 MOL1         0.0999
       8    C2      19.732851   19.262173   21.715112 C.3        1 MOL1        -0.1308
       9    H6      19.699422   19.704576   22.719678 H          1 MOL1         0.1025
      10    H7      18.855496   19.635062   21.169958 H          1 MOL1         0.1025
      11    C3      19.661973   17.723047   21.822751 C.3        1 MOL1        -0.1243
      12    H8      20.541633   17.348907   22.365469 H          1 MOL1         0.1025
      13    H9      19.698663   17.279477   20.817651 H          1 MOL1         0.1025
      14    C4      18.378320   17.256425   22.542789 C.3        1 MOL1        -0.2258
      15    H10     18.347083   16.161121   22.608975 H          1 MOL1         0.1036
      16    H11     17.480560   17.586439   22.003970 H          1 MOL1         0.1036
      17    H12     18.330163   17.656473   23.563989 H          1 MOL1         0.1036
@<TRIPOS>BOND
    1     1     2    1
    2     1     3    1
    3     1     4    1
    4     1     5    1
    5     5     6    1
    6     5     7    1
    7     5     8    1
    8     8     9    1
    9     8    10    1
   10     8    11    1
   11    11    12    1
   12    11    13    1
   13    11    14    1
   14    14    15    1
   15    14    16    1
   16    14    17    1
@<TRIPOS>SUBSTRUCTURE
       1 MOL1            1 RESIDUE      1      MOL     
@<SCITEGIC>MOL_PROPERTY
VConf Rank
SciTegic.value.IntegerValue
409

@<SCITEGIC>MOL_PROPERTY
Conf_Id
SciTegic.value.IntegerValue
7

@<SCITEGIC>MOL_PROPERTY
Delta U+W
SciTegic.value.DoubleValue
0.000

@<SCITEGIC>MOL_PROPERTY
U+W
SciTegic.value.DoubleValue
-15.865

@<SCITEGIC>MOL_PROPERTY
Grad RMS
SciTegic.value.DoubleValue
0.000000

@<SCITEGIC>MOL_PROPERTY
U
SciTegic.value.DoubleValue
44.664

@<SCITEGIC>MOL_PROPERTY
W
SciTegic.value.DoubleValue
-60.529

@<SCITEGIC>MOL_PROPERTY
W(PB)
SciTegic.value.DoubleValue
-62.309

@<SCITEGIC>MOL_PROPERTY
W(SA)
SciTegic.value.DoubleValue
1.780

@<SCITEGIC>MOL_PROPERTY
Valence
SciTegic.value.DoubleValue
0.872

@<SCITEGIC>MOL_PROPERTY
Coulomb
SciTegic.value.DoubleValue
43.648

@<SCITEGIC>MOL_PROPERTY
VdW
SciTegic.value.DoubleValue
0.144

@<SCITEGIC>MOL_PROPERTY
VdW6
SciTegic.value.DoubleValue
-2.370

@<SCITEGIC>MOL_PROPERTY
VdW12
SciTegic.value.DoubleValue
2.515

@<SCITEGIC>MOL_PROPERTY
Bond
SciTegic.value.DoubleValue
0.080

@<SCITEGIC>MOL_PROPERTY
Angle
SciTegic.value.DoubleValue
0.376

@<SCITEGIC>MOL_PROPERTY
Pdih
SciTegic.value.DoubleValue
0.416

@<SCITEGIC>MOL_PROPERTY
Idih
SciTegic.value.DoubleValue
0.000

@<SCITEGIC>MOL_PROPERTY
Tether
SciTegic.value.DoubleValue
0.000

@<TRIPOS>MOLECULE
guest-1_confgen4.mol2 : confsearch ligand conformer 410
          17          16           1
SMALL
USER_CHARGES
 
@<TRIPOS>ATOM
       1    N1      21.147830   19.167548   19.537997 N.4        1 MOL1        -0.5891
       2    H1      21.708036   20.025030   19.514702 H          1 MOL1         0.3726
       3    H2      20.349087   19.313145   18.913131 H          1 MOL1         0.3726
       4    H3      21.720841   18.427895   19.119170 H          1 MOL1         0.3726
       5    C1      20.710395   18.813110   20.945257 C.3        1 MOL1         0.0314
       6    H4      21.608277   18.643159   21.545534 H          1 MOL1         0.0999
       7    H5      20.148231   17.876934   20.896430 H          1 MOL1         0.0999
       8    C2      19.845932   19.904649   21.604957 C.3        1 MOL1        -0.1308
       9    H6      20.404422   20.850115   21.612765 H          1 MOL1         0.1025
      10    H7      18.944948   20.076515   21.001153 H          1 MOL1         0.1025
      11    C3      19.439007   19.548568   23.053965 C.3        1 MOL1        -0.1243
      12    H8      18.896112   20.398268   23.491293 H          1 MOL1         0.1025
      13    H9      20.339962   19.408846   23.667920 H          1 MOL1         0.1025
      14    C4      18.551573   18.285583   23.139325 C.3        1 MOL1        -0.2258
      15    H10     17.646036   18.396985   22.528818 H          1 MOL1         0.1036
      16    H11     18.236650   18.105753   24.175419 H          1 MOL1         0.1036
      17    H12     19.088042   17.391669   22.796965 H          1 MOL1         0.1036
@<TRIPOS>BOND
    1     1     2    1
    2     1     3    1
    3     1     4    1
    4     1     5    1
    5     5     6    1
    6     5     7    1
    7     5     8    1
    8     8     9    1
    9     8    10    1
   10     8    11    1
   11    11    12    1
   12    11    13    1
   13    11    14    1
   14    14    15    1
   15    14    16    1
   16    14    17    1
@<TRIPOS>SUBSTRUCTURE
       1 MOL1            1 RESIDUE      1      MOL     
@<SCITEGIC>MOL_PROPERTY
VConf Rank
SciTegic.value.IntegerValue
410

@<SCITEGIC>MOL_PROPERTY
Conf_Id
SciTegic.value.IntegerValue
36

@<SCITEGIC>MOL_PROPERTY
Delta U+W
SciTegic.value.DoubleValue
0.275

@<SCITEGIC>MOL_PROPERTY
U+W
SciTegic.value.DoubleValue
-15.590

@<SCITEGIC>MOL_PROPERTY
Grad RMS
SciTegic.value.DoubleValue
0.000000

@<SCITEGIC>MOL_PROPERTY
U
SciTegic.value.DoubleValue
45.174

@<SCITEGIC>MOL_PROPERTY
W
SciTegic.value.DoubleValue
-60.765

@<SCITEGIC>MOL_PROPERTY
W(PB)
SciTegic.value.DoubleValue
-62.518

@<SCITEGIC>MOL_PROPERTY
W(SA)
SciTegic.value.DoubleValue
1.754

@<SCITEGIC>MOL_PROPERTY
Valence
SciTegic.value.DoubleValue
1.161

@<SCITEGIC>MOL_PROPERTY
Coulomb
SciTegic.value.DoubleValue
43.789

@<SCITEGIC>MOL_PROPERTY
VdW
SciTegic.value.DoubleValue
0.224

@<SCITEGIC>MOL_PROPERTY
VdW6
SciTegic.value.DoubleValue
-2.897

@<SCITEGIC>MOL_PROPERTY
VdW12
SciTegic.value.DoubleValue
3.121

@<SCITEGIC>MOL_PROPERTY
Bond
SciTegic.value.DoubleValue
0.100

@<SCITEGIC>MOL_PROPERTY
Angle
SciTegic.value.DoubleValue
0.500

@<SCITEGIC>MOL_PROPERTY
Pdih
SciTegic.value.DoubleValue
0.561

@<SCITEGIC>MOL_PROPERTY
Idih
SciTegic.value.DoubleValue
0.000

@<SCITEGIC>MOL_PROPERTY
Tether
SciTegic.value.DoubleValue
0.000

@<TRIPOS>MOLECULE
guest-1_confgen4.mol2 : confsearch ligand conformer 411
          17          16           1
SMALL
USER_CHARGES
 
@<TRIPOS>ATOM
       1    N1      21.060447   20.017828   22.666483 N.4        1 MOL1        -0.5891
       2    H1      20.973439   20.413516   21.726959 H          1 MOL1         0.3726
       3    H2      21.954372   19.518684   22.701605 H          1 MOL1         0.3726
       4    H3      21.133105   20.804008   23.320291 H          1 MOL1         0.3726
       5    C1      19.894060   19.109223   23.004132 C.3        1 MOL1         0.0314
       6    H4      18.979271   19.707774   23.018288 H          1 MOL1         0.0999
       7    H5      20.065827   18.730794   24.015480 H          1 MOL1         0.0999
       8    C2      19.721635   17.914360   22.042786 C.3        1 MOL1        -0.1308
       9    H6      20.697836   17.457858   21.832151 H          1 MOL1         0.1025
      10    H7      19.136327   17.146014   22.565189 H          1 MOL1         0.1025
      11    C3      18.988710   18.254299   20.719923 C.3        1 MOL1        -0.1243
      12    H8      17.988446   18.651399   20.943096 H          1 MOL1         0.1025
      13    H9      18.827525   17.320132   20.163739 H          1 MOL1         0.1025
      14    C4      19.744786   19.246295   19.807138 C.3        1 MOL1        -0.2258
      15    H10     19.750389   20.257762   20.229724 H          1 MOL1         0.1036
      16    H11     19.255556   19.309608   18.826423 H          1 MOL1         0.1036
      17    H12     20.781467   18.925162   19.641853 H          1 MOL1         0.1036
@<TRIPOS>BOND
    1     1     2    1
    2     1     3    1
    3     1     4    1
    4     1     5    1
    5     5     6    1
    6     5     7    1
    7     5     8    1
    8     8     9    1
    9     8    10    1
   10     8    11    1
   11    11    12    1
   12    11    13    1
   13    11    14    1
   14    14    15    1
   15    14    16    1
   16    14    17    1
@<TRIPOS>SUBSTRUCTURE
       1 MOL1            1 RESIDUE      1      MOL     
@<SCITEGIC>MOL_PROPERTY
VConf Rank
SciTegic.value.IntegerValue
411

@<SCITEGIC>MOL_PROPERTY
Conf_Id
SciTegic.value.IntegerValue
19

@<SCITEGIC>MOL_PROPERTY
Delta U+W
SciTegic.value.DoubleValue
2.662

@<SCITEGIC>MOL_PROPERTY
U+W
SciTegic.value.DoubleValue
-13.203

@<SCITEGIC>MOL_PROPERTY
Grad RMS
SciTegic.value.DoubleValue
0.000000

@<SCITEGIC>MOL_PROPERTY
U
SciTegic.value.DoubleValue
47.423

@<SCITEGIC>MOL_PROPERTY
W
SciTegic.value.DoubleValue
-60.626

@<SCITEGIC>MOL_PROPERTY
W(PB)
SciTegic.value.DoubleValue
-62.328

@<SCITEGIC>MOL_PROPERTY
W(SA)
SciTegic.value.DoubleValue
1.702

@<SCITEGIC>MOL_PROPERTY
Valence
SciTegic.value.DoubleValue
2.414

@<SCITEGIC>MOL_PROPERTY
Coulomb
SciTegic.value.DoubleValue
44.831

@<SCITEGIC>MOL_PROPERTY
VdW
SciTegic.value.DoubleValue
0.178

@<SCITEGIC>MOL_PROPERTY
VdW6
SciTegic.value.DoubleValue
-3.743

@<SCITEGIC>MOL_PROPERTY
VdW12
SciTegic.value.DoubleValue
3.921

@<SCITEGIC>MOL_PROPERTY
Bond
SciTegic.value.DoubleValue
0.138

@<SCITEGIC>MOL_PROPERTY
Angle
SciTegic.value.DoubleValue
0.941

@<SCITEGIC>MOL_PROPERTY
Pdih
SciTegic.value.DoubleValue
1.335

@<SCITEGIC>MOL_PROPERTY
Idih
SciTegic.value.DoubleValue
0.000

@<SCITEGIC>MOL_PROPERTY
Tether
SciTegic.value.DoubleValue
0.000

@<TRIPOS>MOLECULE
guest-1_confgen4.mol2 : confsearch ligand conformer 412
          17          16           1
SMALL
USER_CHARGES
 
@<TRIPOS>ATOM
       1    N1      19.869154   20.026918   20.011974 N.4        1 MOL1        -0.5891
       2    H1      19.624546   20.908732   19.550028 H          1 MOL1         0.3726
       3    H2      20.094278   19.356010   19.271243 H          1 MOL1         0.3726
       4    H3      20.729579   20.191513   20.540578 H          1 MOL1         0.3726
       5    C1      18.748549   19.527196   20.903356 C.3        1 MOL1         0.0314
       6    H4      17.874484   19.376290   20.264001 H          1 MOL1         0.0999
       7    H5      18.505777   20.308586   21.628472 H          1 MOL1         0.0999
       8    C2      19.064888   18.209479   21.641707 C.3        1 MOL1        -0.1308
       9    H6      18.110304   17.750290   21.931119 H          1 MOL1         0.1025
      10    H7      19.544389   17.499732   20.954635 H          1 MOL1         0.1025
      11    C3      19.919576   18.380159   22.923534 C.3        1 MOL1        -0.1243
      12    H8      19.994376   17.403529   23.422122 H          1 MOL1         0.1025
      13    H9      19.398927   19.042493   23.629410 H          1 MOL1         0.1025
      14    C4      21.347703   18.915386   22.672805 C.3        1 MOL1        -0.2258
      15    H10     21.862772   18.330137   21.899928 H          1 MOL1         0.1036
      16    H11     21.944763   18.851562   23.591827 H          1 MOL1         0.1036
      17    H12     21.335146   19.968832   22.369864 H          1 MOL1         0.1036
@<TRIPOS>BOND
    1     1     2    1
    2     1     3    1
    3     1     4    1
    4     1     5    1
    5     5     6    1
    6     5     7    1
    7     5     8    1
    8     8     9    1
    9     8    10    1
   10     8    11    1
   11    11    12    1
   12    11    13    1
   13    11    14    1
   14    14    15    1
   15    14    16    1
   16    14    17    1
@<TRIPOS>SUBSTRUCTURE
       1 MOL1            1 RESIDUE      1      MOL     
@<SCITEGIC>MOL_PROPERTY
VConf Rank
SciTegic.value.IntegerValue
412

@<SCITEGIC>MOL_PROPERTY
Conf_Id
SciTegic.value.IntegerValue
44

@<SCITEGIC>MOL_PROPERTY
Delta U+W
SciTegic.value.DoubleValue
2.712

@<SCITEGIC>MOL_PROPERTY
U+W
SciTegic.value.DoubleValue
-13.153

@<SCITEGIC>MOL_PROPERTY
Grad RMS
SciTegic.value.DoubleValue
0.000000

@<SCITEGIC>MOL_PROPERTY
U
SciTegic.value.DoubleValue
47.423

@<SCITEGIC>MOL_PROPERTY
W
SciTegic.value.DoubleValue
-60.576

@<SCITEGIC>MOL_PROPERTY
W(PB)
SciTegic.value.DoubleValue
-62.262

@<SCITEGIC>MOL_PROPERTY
W(SA)
SciTegic.value.DoubleValue
1.687

@<SCITEGIC>MOL_PROPERTY
Valence
SciTegic.value.DoubleValue
2.414

@<SCITEGIC>MOL_PROPERTY
Coulomb
SciTegic.value.DoubleValue
44.831

@<SCITEGIC>MOL_PROPERTY
VdW
SciTegic.value.DoubleValue
0.178

@<SCITEGIC>MOL_PROPERTY
VdW6
SciTegic.value.DoubleValue
-3.743

@<SCITEGIC>MOL_PROPERTY
VdW12
SciTegic.value.DoubleValue
3.922

@<SCITEGIC>MOL_PROPERTY
Bond
SciTegic.value.DoubleValue
0.138

@<SCITEGIC>MOL_PROPERTY
Angle
SciTegic.value.DoubleValue
0.941

@<SCITEGIC>MOL_PROPERTY
Pdih
SciTegic.value.DoubleValue
1.335

@<SCITEGIC>MOL_PROPERTY
Idih
SciTegic.value.DoubleValue
0.000

@<SCITEGIC>MOL_PROPERTY
Tether
SciTegic.value.DoubleValue
0.000

@<TRIPOS>MOLECULE
guest-1_confgen4.mol2 : confsearch ligand conformer 413
          17          16           1
SMALL
USER_CHARGES
 
@<TRIPOS>ATOM
       1    N1      21.792169   19.030304   22.259461 N.4        1 MOL1        -0.5891
       2    H1      21.300283   19.776484   22.759169 H          1 MOL1         0.3726
       3    H2      22.427711   19.479680   21.593483 H          1 MOL1         0.3726
       4    H3      22.376674   18.544459   22.947194 H          1 MOL1         0.3726
       5    C1      20.827277   18.084508   21.570759 C.3        1 MOL1         0.0314
       6    H4      20.202130   17.619637   22.337499 H          1 MOL1         0.0999
       7    H5      21.416729   17.297477   21.092569 H          1 MOL1         0.0999
       8    C2      19.933817   18.766773   20.514272 C.3        1 MOL1        -0.1308
       9    H6      20.568913   19.195283   19.727645 H          1 MOL1         0.1025
      10    H7      19.318576   17.999330   20.026097 H          1 MOL1         0.1025
      11    C3      19.010706   19.870606   21.087835 C.3        1 MOL1        -0.1243
      12    H8      18.426829   20.306352   20.264964 H          1 MOL1         0.1025
      13    H9      19.613990   20.691355   21.499022 H          1 MOL1         0.1025
      14    C4      18.039313   19.345743   22.169829 C.3        1 MOL1        -0.2258
      15    H10     17.423375   18.523989   21.782003 H          1 MOL1         0.1036
      16    H11     17.362378   20.144459   22.499647 H          1 MOL1         0.1036
      17    H12     18.577770   18.982322   23.054101 H          1 MOL1         0.1036
@<TRIPOS>BOND
    1     1     2    1
    2     1     3    1
    3     1     4    1
    4     1     5    1
    5     5     6    1
    6     5     7    1
    7     5     8    1
    8     8     9    1
    9     8    10    1
   10     8    11    1
   11    11    12    1
   12    11    13    1
   13    11    14    1
   14    14    15    1
   15    14    16    1
   16    14    17    1
@<TRIPOS>SUBSTRUCTURE
       1 MOL1            1 RESIDUE      1      MOL     
@<SCITEGIC>MOL_PROPERTY
VConf Rank
SciTegic.value.IntegerValue
413

@<SCITEGIC>MOL_PROPERTY
Conf_Id
SciTegic.value.IntegerValue
1

@<SCITEGIC>MOL_PROPERTY
Delta U+W
SciTegic.value.DoubleValue
0.685

@<SCITEGIC>MOL_PROPERTY
U+W
SciTegic.value.DoubleValue
-15.179

@<SCITEGIC>MOL_PROPERTY
Grad RMS
SciTegic.value.DoubleValue
0.000000

@<SCITEGIC>MOL_PROPERTY
U
SciTegic.value.DoubleValue
45.697

@<SCITEGIC>MOL_PROPERTY
W
SciTegic.value.DoubleValue
-60.876

@<SCITEGIC>MOL_PROPERTY
W(PB)
SciTegic.value.DoubleValue
-62.586

@<SCITEGIC>MOL_PROPERTY
W(SA)
SciTegic.value.DoubleValue
1.710

@<SCITEGIC>MOL_PROPERTY
Valence
SciTegic.value.DoubleValue
1.263

@<SCITEGIC>MOL_PROPERTY
Coulomb
SciTegic.value.DoubleValue
44.179

@<SCITEGIC>MOL_PROPERTY
VdW
SciTegic.value.DoubleValue
0.255

@<SCITEGIC>MOL_PROPERTY
VdW6
SciTegic.value.DoubleValue
-3.552

@<SCITEGIC>MOL_PROPERTY
VdW12
SciTegic.value.DoubleValue
3.807

@<SCITEGIC>MOL_PROPERTY
Bond
SciTegic.value.DoubleValue
0.125

@<SCITEGIC>MOL_PROPERTY
Angle
SciTegic.value.DoubleValue
0.616

@<SCITEGIC>MOL_PROPERTY
Pdih
SciTegic.value.DoubleValue
0.521

@<SCITEGIC>MOL_PROPERTY
Idih
SciTegic.value.DoubleValue
0.000

@<SCITEGIC>MOL_PROPERTY
Tether
SciTegic.value.DoubleValue
0.000

@<TRIPOS>MOLECULE
guest-1_confgen4.mol2 : confsearch ligand conformer 414
          17          16           1
SMALL
USER_CHARGES
 
@<TRIPOS>ATOM
       1    N1      20.384000   18.606734   19.713471 N.4        1 MOL1        -0.5891
       2    H1      19.941294   19.262378   19.062688 H          1 MOL1         0.3726
       3    H2      19.665258   17.938581   20.005755 H          1 MOL1         0.3726
       4    H3      21.081417   18.080537   19.177379 H          1 MOL1         0.3726
       5    C1      21.004478   19.319184   20.899759 C.3        1 MOL1         0.0314
       6    H4      21.783925   19.984355   20.518251 H          1 MOL1         0.0999
       7    H5      21.482110   18.568527   21.534730 H          1 MOL1         0.0999
       8    C2      19.995927   20.138450   21.731353 C.3        1 MOL1        -0.1308
       9    H6      20.541748   20.667102   22.524076 H          1 MOL1         0.1025
      10    H7      19.551766   20.915726   21.095498 H          1 MOL1         0.1025
      11    C3      18.868061   19.289267   22.368820 C.3        1 MOL1        -0.1243
      12    H8      18.254613   18.826144   21.584058 H          1 MOL1         0.1025
      13    H9      18.194938   19.956060   22.925774 H          1 MOL1         0.1025
      14    C4      19.399235   18.198031   23.326346 C.3        1 MOL1        -0.2258
      15    H10     18.566178   17.665969   23.803727 H          1 MOL1         0.1036
      16    H11     20.015598   18.636923   24.121668 H          1 MOL1         0.1036
      17    H12     20.005442   17.454069   22.794386 H          1 MOL1         0.1036
@<TRIPOS>BOND
    1     1     2    1
    2     1     3    1
    3     1     4    1
    4     1     5    1
    5     5     6    1
    6     5     7    1
    7     5     8    1
    8     8     9    1
    9     8    10    1
   10     8    11    1
   11    11    12    1
   12    11    13    1
   13    11    14    1
   14    14    15    1
   15    14    16    1
   16    14    17    1
@<TRIPOS>SUBSTRUCTURE
       1 MOL1            1 RESIDUE      1      MOL     
@<SCITEGIC>MOL_PROPERTY
VConf Rank
SciTegic.value.IntegerValue
414

@<SCITEGIC>MOL_PROPERTY
Conf_Id
SciTegic.value.IntegerValue
43

@<SCITEGIC>MOL_PROPERTY
Delta U+W
SciTegic.value.DoubleValue
0.642

@<SCITEGIC>MOL_PROPERTY
U+W
SciTegic.value.DoubleValue
-15.222

@<SCITEGIC>MOL_PROPERTY
Grad RMS
SciTegic.value.DoubleValue
0.000000

@<SCITEGIC>MOL_PROPERTY
U
SciTegic.value.DoubleValue
45.697

@<SCITEGIC>MOL_PROPERTY
W
SciTegic.value.DoubleValue
-60.919

@<SCITEGIC>MOL_PROPERTY
W(PB)
SciTegic.value.DoubleValue
-62.631

@<SCITEGIC>MOL_PROPERTY
W(SA)
SciTegic.value.DoubleValue
1.712

@<SCITEGIC>MOL_PROPERTY
Valence
SciTegic.value.DoubleValue
1.262

@<SCITEGIC>MOL_PROPERTY
Coulomb
SciTegic.value.DoubleValue
44.179

@<SCITEGIC>MOL_PROPERTY
VdW
SciTegic.value.DoubleValue
0.255

@<SCITEGIC>MOL_PROPERTY
VdW6
SciTegic.value.DoubleValue
-3.552

@<SCITEGIC>MOL_PROPERTY
VdW12
SciTegic.value.DoubleValue
3.807

@<SCITEGIC>MOL_PROPERTY
Bond
SciTegic.value.DoubleValue
0.125

@<SCITEGIC>MOL_PROPERTY
Angle
SciTegic.value.DoubleValue
0.616

@<SCITEGIC>MOL_PROPERTY
Pdih
SciTegic.value.DoubleValue
0.521

@<SCITEGIC>MOL_PROPERTY
Idih
SciTegic.value.DoubleValue
0.000

@<SCITEGIC>MOL_PROPERTY
Tether
SciTegic.value.DoubleValue
0.000

@<TRIPOS>MOLECULE
guest-1_confgen4.mol2 : confsearch ligand conformer 415
          17          16           1
SMALL
USER_CHARGES
 
@<TRIPOS>ATOM
       1    N1      17.754375   18.586519   20.372033 N.4        1 MOL1        -0.5891
       2    H1      18.127131   18.613089   19.418072 H          1 MOL1         0.3726
       3    H2      17.307632   19.492045   20.545648 H          1 MOL1         0.3726
       4    H3      17.009357   17.882388   20.379444 H          1 MOL1         0.3726
       5    C1      18.830654   18.278969   21.393988 C.3        1 MOL1         0.0314
       6    H4      19.239537   17.290713   21.166638 H          1 MOL1         0.0999
       7    H5      18.358301   18.235830   22.379151 H          1 MOL1         0.0999
       8    C2      19.966777   19.317829   21.409948 C.3        1 MOL1        -0.1308
       9    H6      20.428548   19.369496   20.414916 H          1 MOL1         0.1025
      10    H7      19.550371   20.311325   21.623401 H          1 MOL1         0.1025
      11    C3      21.040594   18.967425   22.463349 C.3        1 MOL1        -0.1243
      12    H8      21.455438   17.971622   22.252143 H          1 MOL1         0.1025
      13    H9      20.578360   18.912373   23.459157 H          1 MOL1         0.1025
      14    C4      22.183629   20.005189   22.485091 C.3        1 MOL1        -0.2258
      15    H10     22.935396   19.738416   23.239232 H          1 MOL1         0.1036
      16    H11     21.804175   21.006280   22.728069 H          1 MOL1         0.1036
      17    H12     22.688133   20.058140   21.511501 H          1 MOL1         0.1036
@<TRIPOS>BOND
    1     1     2    1
    2     1     3    1
    3     1     4    1
    4     1     5    1
    5     5     6    1
    6     5     7    1
    7     5     8    1
    8     8     9    1
    9     8    10    1
   10     8    11    1
   11    11    12    1
   12    11    13    1
   13    11    14    1
   14    14    15    1
   15    14    16    1
   16    14    17    1
@<TRIPOS>SUBSTRUCTURE
       1 MOL1            1 RESIDUE      1      MOL     
@<SCITEGIC>MOL_PROPERTY
VConf Rank
SciTegic.value.IntegerValue
415

@<SCITEGIC>MOL_PROPERTY
Conf_Id
SciTegic.value.IntegerValue
7

@<SCITEGIC>MOL_PROPERTY
Delta U+W
SciTegic.value.DoubleValue
0.000

@<SCITEGIC>MOL_PROPERTY
U+W
SciTegic.value.DoubleValue
-15.865

@<SCITEGIC>MOL_PROPERTY
Grad RMS
SciTegic.value.DoubleValue
0.000000

@<SCITEGIC>MOL_PROPERTY
U
SciTegic.value.DoubleValue
44.664

@<SCITEGIC>MOL_PROPERTY
W
SciTegic.value.DoubleValue
-60.529

@<SCITEGIC>MOL_PROPERTY
W(PB)
SciTegic.value.DoubleValue
-62.309

@<SCITEGIC>MOL_PROPERTY
W(SA)
SciTegic.value.DoubleValue
1.780

@<SCITEGIC>MOL_PROPERTY
Valence
SciTegic.value.DoubleValue
0.872

@<SCITEGIC>MOL_PROPERTY
Coulomb
SciTegic.value.DoubleValue
43.648

@<SCITEGIC>MOL_PROPERTY
VdW
SciTegic.value.DoubleValue
0.144

@<SCITEGIC>MOL_PROPERTY
VdW6
SciTegic.value.DoubleValue
-2.370

@<SCITEGIC>MOL_PROPERTY
VdW12
SciTegic.value.DoubleValue
2.515

@<SCITEGIC>MOL_PROPERTY
Bond
SciTegic.value.DoubleValue
0.080

@<SCITEGIC>MOL_PROPERTY
Angle
SciTegic.value.DoubleValue
0.376

@<SCITEGIC>MOL_PROPERTY
Pdih
SciTegic.value.DoubleValue
0.416

@<SCITEGIC>MOL_PROPERTY
Idih
SciTegic.value.DoubleValue
0.000

@<SCITEGIC>MOL_PROPERTY
Tether
SciTegic.value.DoubleValue
0.000

@<TRIPOS>MOLECULE
guest-1_confgen4.mol2 : confsearch ligand conformer 416
          17          16           1
SMALL
USER_CHARGES
 
@<TRIPOS>ATOM
       1    N1      19.217750   19.167933   23.926200 N.4        1 MOL1        -0.5891
       2    H1      18.471648   19.863985   24.018349 H          1 MOL1         0.3726
       3    H2      20.066861   19.583199   24.321436 H          1 MOL1         0.3726
       4    H3      18.964054   18.379952   24.530821 H          1 MOL1         0.3726
       5    C1      19.414843   18.733877   22.487414 C.3        1 MOL1         0.0314
       6    H4      18.484267   18.275266   22.142287 H          1 MOL1         0.0999
       7    H5      20.199121   17.972650   22.470718 H          1 MOL1         0.0999
       8    C2      19.797872   19.895374   21.550307 C.3        1 MOL1        -0.1308
       9    H6      19.023562   20.672118   21.604979 H          1 MOL1         0.1025
      10    H7      20.731632   20.357048   21.897925 H          1 MOL1         0.1025
      11    C3      19.957605   19.446731   20.078841 C.3        1 MOL1        -0.1243
      12    H8      20.150139   20.330887   19.454998 H          1 MOL1         0.1025
      13    H9      19.013242   19.014565   19.718850 H          1 MOL1         0.1025
      14    C4      21.103982   18.429074   19.878461 C.3        1 MOL1        -0.2258
      15    H10     22.059315   18.834599   20.236250 H          1 MOL1         0.1036
      16    H11     21.221139   18.185846   18.814449 H          1 MOL1         0.1036
      17    H12     20.908350   17.490667   20.412514 H          1 MOL1         0.1036
@<TRIPOS>BOND
    1     1     2    1
    2     1     3    1
    3     1     4    1
    4     1     5    1
    5     5     6    1
    6     5     7    1
    7     5     8    1
    8     8     9    1
    9     8    10    1
   10     8    11    1
   11    11    12    1
   12    11    13    1
   13    11    14    1
   14    14    15    1
   15    14    16    1
   16    14    17    1
@<TRIPOS>SUBSTRUCTURE
       1 MOL1            1 RESIDUE      1      MOL     
@<SCITEGIC>MOL_PROPERTY
VConf Rank
SciTegic.value.IntegerValue
416

@<SCITEGIC>MOL_PROPERTY
Conf_Id
SciTegic.value.IntegerValue
36

@<SCITEGIC>MOL_PROPERTY
Delta U+W
SciTegic.value.DoubleValue
0.275

@<SCITEGIC>MOL_PROPERTY
U+W
SciTegic.value.DoubleValue
-15.590

@<SCITEGIC>MOL_PROPERTY
Grad RMS
SciTegic.value.DoubleValue
0.000000

@<SCITEGIC>MOL_PROPERTY
U
SciTegic.value.DoubleValue
45.174

@<SCITEGIC>MOL_PROPERTY
W
SciTegic.value.DoubleValue
-60.765

@<SCITEGIC>MOL_PROPERTY
W(PB)
SciTegic.value.DoubleValue
-62.518

@<SCITEGIC>MOL_PROPERTY
W(SA)
SciTegic.value.DoubleValue
1.754

@<SCITEGIC>MOL_PROPERTY
Valence
SciTegic.value.DoubleValue
1.161

@<SCITEGIC>MOL_PROPERTY
Coulomb
SciTegic.value.DoubleValue
43.789

@<SCITEGIC>MOL_PROPERTY
VdW
SciTegic.value.DoubleValue
0.224

@<SCITEGIC>MOL_PROPERTY
VdW6
SciTegic.value.DoubleValue
-2.897

@<SCITEGIC>MOL_PROPERTY
VdW12
SciTegic.value.DoubleValue
3.121

@<SCITEGIC>MOL_PROPERTY
Bond
SciTegic.value.DoubleValue
0.100

@<SCITEGIC>MOL_PROPERTY
Angle
SciTegic.value.DoubleValue
0.500

@<SCITEGIC>MOL_PROPERTY
Pdih
SciTegic.value.DoubleValue
0.561

@<SCITEGIC>MOL_PROPERTY
Idih
SciTegic.value.DoubleValue
0.000

@<SCITEGIC>MOL_PROPERTY
Tether
SciTegic.value.DoubleValue
0.000

@<TRIPOS>MOLECULE
guest-1_confgen4.mol2 : confsearch ligand conformer 417
          17          16           1
SMALL
USER_CHARGES
 
@<TRIPOS>ATOM
       1    N1      21.306400   19.777351   22.581071 N.4        1 MOL1        -0.5891
       2    H1      21.048190   18.867244   22.970787 H          1 MOL1         0.3726
       3    H2      20.860679   20.492170   23.164035 H          1 MOL1         0.3726
       4    H3      22.318687   19.882679   22.703555 H          1 MOL1         0.3726
       5    C1      20.898209   19.902083   21.125787 C.3        1 MOL1         0.0314
       6    H4      21.453976   19.162078   20.543706 H          1 MOL1         0.0999
       7    H5      21.206888   20.896206   20.791161 H          1 MOL1         0.0999
       8    C2      19.384753   19.734574   20.874777 C.3        1 MOL1        -0.1308
       9    H6      18.814852   20.293498   21.628796 H          1 MOL1         0.1025
      10    H7      19.151091   20.205399   19.910634 H          1 MOL1         0.1025
      11    C3      18.902038   18.262770   20.815763 C.3        1 MOL1        -0.1243
      12    H8      19.435008   17.730834   20.015133 H          1 MOL1         0.1025
      13    H9      17.840871   18.257877   20.529598 H          1 MOL1         0.1025
      14    C4      19.057503   17.485553   22.142656 C.3        1 MOL1        -0.2258
      15    H10     20.110532   17.280159   22.367643 H          1 MOL1         0.1036
      16    H11     18.546891   16.515906   22.077730 H          1 MOL1         0.1036
      17    H12     18.616629   18.038333   22.982428 H          1 MOL1         0.1036
@<TRIPOS>BOND
    1     1     2    1
    2     1     3    1
    3     1     4    1
    4     1     5    1
    5     5     6    1
    6     5     7    1
    7     5     8    1
    8     8     9    1
    9     8    10    1
   10     8    11    1
   11    11    12    1
   12    11    13    1
   13    11    14    1
   14    14    15    1
   15    14    16    1
   16    14    17    1
@<TRIPOS>SUBSTRUCTURE
       1 MOL1            1 RESIDUE      1      MOL     
@<SCITEGIC>MOL_PROPERTY
VConf Rank
SciTegic.value.IntegerValue
417

@<SCITEGIC>MOL_PROPERTY
Conf_Id
SciTegic.value.IntegerValue
19

@<SCITEGIC>MOL_PROPERTY
Delta U+W
SciTegic.value.DoubleValue
2.662

@<SCITEGIC>MOL_PROPERTY
U+W
SciTegic.value.DoubleValue
-13.203

@<SCITEGIC>MOL_PROPERTY
Grad RMS
SciTegic.value.DoubleValue
0.000000

@<SCITEGIC>MOL_PROPERTY
U
SciTegic.value.DoubleValue
47.423

@<SCITEGIC>MOL_PROPERTY
W
SciTegic.value.DoubleValue
-60.626

@<SCITEGIC>MOL_PROPERTY
W(PB)
SciTegic.value.DoubleValue
-62.328

@<SCITEGIC>MOL_PROPERTY
W(SA)
SciTegic.value.DoubleValue
1.702

@<SCITEGIC>MOL_PROPERTY
Valence
SciTegic.value.DoubleValue
2.414

@<SCITEGIC>MOL_PROPERTY
Coulomb
SciTegic.value.DoubleValue
44.831

@<SCITEGIC>MOL_PROPERTY
VdW
SciTegic.value.DoubleValue
0.178

@<SCITEGIC>MOL_PROPERTY
VdW6
SciTegic.value.DoubleValue
-3.743

@<SCITEGIC>MOL_PROPERTY
VdW12
SciTegic.value.DoubleValue
3.921

@<SCITEGIC>MOL_PROPERTY
Bond
SciTegic.value.DoubleValue
0.138

@<SCITEGIC>MOL_PROPERTY
Angle
SciTegic.value.DoubleValue
0.941

@<SCITEGIC>MOL_PROPERTY
Pdih
SciTegic.value.DoubleValue
1.335

@<SCITEGIC>MOL_PROPERTY
Idih
SciTegic.value.DoubleValue
0.000

@<SCITEGIC>MOL_PROPERTY
Tether
SciTegic.value.DoubleValue
0.000

@<TRIPOS>MOLECULE
guest-1_confgen4.mol2 : confsearch ligand conformer 418
          17          16           1
SMALL
USER_CHARGES
 
@<TRIPOS>ATOM
       1    N1      21.516865   19.942603   21.564152 N.4        1 MOL1        -0.5891
       2    H1      22.450137   19.994146   21.143234 H          1 MOL1         0.3726
       3    H2      21.527429   20.554235   22.385903 H          1 MOL1         0.3726
       4    H3      20.860348   20.350574   20.893788 H          1 MOL1         0.3726
       5    C1      21.139016   18.519113   21.926016 C.3        1 MOL1         0.0314
       6    H4      21.884565   18.162505   22.641925 H          1 MOL1         0.0999
       7    H5      21.210852   17.900709   21.027285 H          1 MOL1         0.0999
       8    C2      19.734442   18.374339   22.548770 C.3        1 MOL1        -0.1308
       9    H6      19.710969   17.428259   23.105750 H          1 MOL1         0.1025
      10    H7      19.569802   19.165565   23.292130 H          1 MOL1         0.1025
      11    C3      18.574767   18.350844   21.520516 C.3        1 MOL1        -0.1243
      12    H8      17.639777   18.139540   22.058229 H          1 MOL1         0.1025
      13    H9      18.718177   17.515520   20.820738 H          1 MOL1         0.1025
      14    C4      18.399076   19.664483   20.725302 C.3        1 MOL1        -0.2258
      15    H10     18.348010   20.532415   21.395555 H          1 MOL1         0.1036
      16    H11     17.467380   19.636495   20.145374 H          1 MOL1         0.1036
      17    H12     19.217600   19.815503   20.011936 H          1 MOL1         0.1036
@<TRIPOS>BOND
    1     1     2    1
    2     1     3    1
    3     1     4    1
    4     1     5    1
    5     5     6    1
    6     5     7    1
    7     5     8    1
    8     8     9    1
    9     8    10    1
   10     8    11    1
   11    11    12    1
   12    11    13    1
   13    11    14    1
   14    14    15    1
   15    14    16    1
   16    14    17    1
@<TRIPOS>SUBSTRUCTURE
       1 MOL1            1 RESIDUE      1      MOL     
@<SCITEGIC>MOL_PROPERTY
VConf Rank
SciTegic.value.IntegerValue
418

@<SCITEGIC>MOL_PROPERTY
Conf_Id
SciTegic.value.IntegerValue
44

@<SCITEGIC>MOL_PROPERTY
Delta U+W
SciTegic.value.DoubleValue
2.712

@<SCITEGIC>MOL_PROPERTY
U+W
SciTegic.value.DoubleValue
-13.153

@<SCITEGIC>MOL_PROPERTY
Grad RMS
SciTegic.value.DoubleValue
0.000000

@<SCITEGIC>MOL_PROPERTY
U
SciTegic.value.DoubleValue
47.423

@<SCITEGIC>MOL_PROPERTY
W
SciTegic.value.DoubleValue
-60.576

@<SCITEGIC>MOL_PROPERTY
W(PB)
SciTegic.value.DoubleValue
-62.262

@<SCITEGIC>MOL_PROPERTY
W(SA)
SciTegic.value.DoubleValue
1.687

@<SCITEGIC>MOL_PROPERTY
Valence
SciTegic.value.DoubleValue
2.414

@<SCITEGIC>MOL_PROPERTY
Coulomb
SciTegic.value.DoubleValue
44.831

@<SCITEGIC>MOL_PROPERTY
VdW
SciTegic.value.DoubleValue
0.178

@<SCITEGIC>MOL_PROPERTY
VdW6
SciTegic.value.DoubleValue
-3.743

@<SCITEGIC>MOL_PROPERTY
VdW12
SciTegic.value.DoubleValue
3.922

@<SCITEGIC>MOL_PROPERTY
Bond
SciTegic.value.DoubleValue
0.138

@<SCITEGIC>MOL_PROPERTY
Angle
SciTegic.value.DoubleValue
0.941

@<SCITEGIC>MOL_PROPERTY
Pdih
SciTegic.value.DoubleValue
1.335

@<SCITEGIC>MOL_PROPERTY
Idih
SciTegic.value.DoubleValue
0.000

@<SCITEGIC>MOL_PROPERTY
Tether
SciTegic.value.DoubleValue
0.000

@<TRIPOS>MOLECULE
guest-1_confgen4.mol2 : confsearch ligand conformer 419
          17          16           1
SMALL
USER_CHARGES
 
@<TRIPOS>ATOM
       1    N1      21.829942   18.773323   21.127265 N.4        1 MOL1        -0.5891
       2    H1      21.533590   19.654562   20.698265 H          1 MOL1         0.3726
       3    H2      21.939426   18.090398   20.371616 H          1 MOL1         0.3726
       4    H3      22.762273   18.931686   21.522673 H          1 MOL1         0.3726
       5    C1      20.844288   18.300818   22.178494 C.3        1 MOL1         0.0314
       6    H4      20.797894   19.058289   22.965190 H          1 MOL1         0.0999
       7    H5      21.241117   17.381482   22.617682 H          1 MOL1         0.0999
       8    C2      19.427712   18.034178   21.628826 C.3        1 MOL1        -0.1308
       9    H6      19.479062   17.243594   20.868504 H          1 MOL1         0.1025
      10    H7      18.804766   17.636924   22.441188 H          1 MOL1         0.1025
      11    C3      18.740640   19.284293   21.024921 C.3        1 MOL1        -0.1243
      12    H8      17.749112   18.995914   20.648603 H          1 MOL1         0.1025
      13    H9      19.304296   19.640202   20.151838 H          1 MOL1         0.1025
      14    C4      18.575896   20.435857   22.043036 C.3        1 MOL1        -0.2258
      15    H10     18.013743   20.104646   22.925844 H          1 MOL1         0.1036
      16    H11     18.027667   21.273090   21.591977 H          1 MOL1         0.1036
      17    H12     19.547218   20.819510   22.379626 H          1 MOL1         0.1036
@<TRIPOS>BOND
    1     1     2    1
    2     1     3    1
    3     1     4    1
    4     1     5    1
    5     5     6    1
    6     5     7    1
    7     5     8    1
    8     8     9    1
    9     8    10    1
   10     8    11    1
   11    11    12    1
   12    11    13    1
   13    11    14    1
   14    14    15    1
   15    14    16    1
   16    14    17    1
@<TRIPOS>SUBSTRUCTURE
       1 MOL1            1 RESIDUE      1      MOL     
@<SCITEGIC>MOL_PROPERTY
VConf Rank
SciTegic.value.IntegerValue
419

@<SCITEGIC>MOL_PROPERTY
Conf_Id
SciTegic.value.IntegerValue
1

@<SCITEGIC>MOL_PROPERTY
Delta U+W
SciTegic.value.DoubleValue
0.685

@<SCITEGIC>MOL_PROPERTY
U+W
SciTegic.value.DoubleValue
-15.179

@<SCITEGIC>MOL_PROPERTY
Grad RMS
SciTegic.value.DoubleValue
0.000000

@<SCITEGIC>MOL_PROPERTY
U
SciTegic.value.DoubleValue
45.697

@<SCITEGIC>MOL_PROPERTY
W
SciTegic.value.DoubleValue
-60.876

@<SCITEGIC>MOL_PROPERTY
W(PB)
SciTegic.value.DoubleValue
-62.586

@<SCITEGIC>MOL_PROPERTY
W(SA)
SciTegic.value.DoubleValue
1.710

@<SCITEGIC>MOL_PROPERTY
Valence
SciTegic.value.DoubleValue
1.263

@<SCITEGIC>MOL_PROPERTY
Coulomb
SciTegic.value.DoubleValue
44.179

@<SCITEGIC>MOL_PROPERTY
VdW
SciTegic.value.DoubleValue
0.255

@<SCITEGIC>MOL_PROPERTY
VdW6
SciTegic.value.DoubleValue
-3.552

@<SCITEGIC>MOL_PROPERTY
VdW12
SciTegic.value.DoubleValue
3.807

@<SCITEGIC>MOL_PROPERTY
Bond
SciTegic.value.DoubleValue
0.125

@<SCITEGIC>MOL_PROPERTY
Angle
SciTegic.value.DoubleValue
0.616

@<SCITEGIC>MOL_PROPERTY
Pdih
SciTegic.value.DoubleValue
0.521

@<SCITEGIC>MOL_PROPERTY
Idih
SciTegic.value.DoubleValue
0.000

@<SCITEGIC>MOL_PROPERTY
Tether
SciTegic.value.DoubleValue
0.000

@<TRIPOS>MOLECULE
guest-1_confgen4.mol2 : confsearch ligand conformer 420
          17          16           1
SMALL
USER_CHARGES
 
@<TRIPOS>ATOM
       1    N1      19.963869   17.945166   23.262811 N.4        1 MOL1        -0.5891
       2    H1      19.066908   17.981763   23.756268 H          1 MOL1         0.3726
       3    H2      20.455467   18.820772   23.463046 H          1 MOL1         0.3726
       4    H3      20.509205   17.190904   23.692189 H          1 MOL1         0.3726
       5    C1      19.781461   17.731390   21.772547 C.3        1 MOL1         0.0314
       6    H4      19.286835   16.766339   21.632690 H          1 MOL1         0.0999
       7    H5      20.772086   17.672718   21.314262 H          1 MOL1         0.0999
       8    C2      18.953263   18.834601   21.081943 C.3        1 MOL1        -0.1308
       9    H6      18.819482   18.564347   20.026069 H          1 MOL1         0.1025
      10    H7      17.947158   18.858236   21.521193 H          1 MOL1         0.1025
      11    C3      19.585948   20.245799   21.170190 C.3        1 MOL1        -0.1243
      12    H8      19.642182   20.569514   22.218379 H          1 MOL1         0.1025
      13    H9      18.922646   20.962992   20.666632 H          1 MOL1         0.1025
      14    C4      20.989124   20.321655   20.525876 C.3        1 MOL1        -0.2258
      15    H10     21.370051   21.350798   20.552824 H          1 MOL1         0.1036
      16    H11     20.958827   20.003458   19.475685 H          1 MOL1         0.1036
      17    H12     21.711474   19.687589   21.055139 H          1 MOL1         0.1036
@<TRIPOS>BOND
    1     1     2    1
    2     1     3    1
    3     1     4    1
    4     1     5    1
    5     5     6    1
    6     5     7    1
    7     5     8    1
    8     8     9    1
    9     8    10    1
   10     8    11    1
   11    11    12    1
   12    11    13    1
   13    11    14    1
   14    14    15    1
   15    14    16    1
   16    14    17    1
@<TRIPOS>SUBSTRUCTURE
       1 MOL1            1 RESIDUE      1      MOL     
@<SCITEGIC>MOL_PROPERTY
VConf Rank
SciTegic.value.IntegerValue
420

@<SCITEGIC>MOL_PROPERTY
Conf_Id
SciTegic.value.IntegerValue
43

@<SCITEGIC>MOL_PROPERTY
Delta U+W
SciTegic.value.DoubleValue
0.642

@<SCITEGIC>MOL_PROPERTY
U+W
SciTegic.value.DoubleValue
-15.222

@<SCITEGIC>MOL_PROPERTY
Grad RMS
SciTegic.value.DoubleValue
0.000000

@<SCITEGIC>MOL_PROPERTY
U
SciTegic.value.DoubleValue
45.697

@<SCITEGIC>MOL_PROPERTY
W
SciTegic.value.DoubleValue
-60.919

@<SCITEGIC>MOL_PROPERTY
W(PB)
SciTegic.value.DoubleValue
-62.631

@<SCITEGIC>MOL_PROPERTY
W(SA)
SciTegic.value.DoubleValue
1.712

@<SCITEGIC>MOL_PROPERTY
Valence
SciTegic.value.DoubleValue
1.262

@<SCITEGIC>MOL_PROPERTY
Coulomb
SciTegic.value.DoubleValue
44.179

@<SCITEGIC>MOL_PROPERTY
VdW
SciTegic.value.DoubleValue
0.255

@<SCITEGIC>MOL_PROPERTY
VdW6
SciTegic.value.DoubleValue
-3.552

@<SCITEGIC>MOL_PROPERTY
VdW12
SciTegic.value.DoubleValue
3.807

@<SCITEGIC>MOL_PROPERTY
Bond
SciTegic.value.DoubleValue
0.125

@<SCITEGIC>MOL_PROPERTY
Angle
SciTegic.value.DoubleValue
0.616

@<SCITEGIC>MOL_PROPERTY
Pdih
SciTegic.value.DoubleValue
0.521

@<SCITEGIC>MOL_PROPERTY
Idih
SciTegic.value.DoubleValue
0.000

@<SCITEGIC>MOL_PROPERTY
Tether
SciTegic.value.DoubleValue
0.000

@<TRIPOS>MOLECULE
guest-1_confgen4.mol2 : confsearch ligand conformer 421
          17          16           1
SMALL
USER_CHARGES
 
@<TRIPOS>ATOM
       1    N1      19.368269   20.373122   23.728602 N.4        1 MOL1        -0.5891
       2    H1      20.196035   20.117359   24.275488 H          1 MOL1         0.3726
       3    H2      18.600774   19.773456   24.046484 H          1 MOL1         0.3726
       4    H3      19.123415   21.332809   23.993093 H          1 MOL1         0.3726
       5    C1      19.610163   20.243683   22.237935 C.3        1 MOL1         0.0314
       6    H4      20.416450   20.930287   21.965905 H          1 MOL1         0.0999
       7    H5      18.701037   20.560524   21.719644 H          1 MOL1         0.0999
       8    C2      19.980580   18.813327   21.805345 C.3        1 MOL1        -0.1308
       9    H6      20.885073   18.492850   22.339366 H          1 MOL1         0.1025
      10    H7      19.175508   18.124390   22.093815 H          1 MOL1         0.1025
      11    C3      20.218348   18.725500   20.281773 C.3        1 MOL1        -0.1243
      12    H8      21.021873   19.417347   19.991909 H          1 MOL1         0.1025
      13    H9      19.314382   19.049262   19.746656 H          1 MOL1         0.1025
      14    C4      20.590450   17.293472   19.840420 C.3        1 MOL1        -0.2258
      15    H10     20.755133   17.252341   18.755876 H          1 MOL1         0.1036
      16    H11     19.789988   16.583471   20.086114 H          1 MOL1         0.1036
      17    H12     21.510929   16.954446   20.333357 H          1 MOL1         0.1036
@<TRIPOS>BOND
    1     1     2    1
    2     1     3    1
    3     1     4    1
    4     1     5    1
    5     5     6    1
    6     5     7    1
    7     5     8    1
    8     8     9    1
    9     8    10    1
   10     8    11    1
   11    11    12    1
   12    11    13    1
   13    11    14    1
   14    14    15    1
   15    14    16    1
   16    14    17    1
@<TRIPOS>SUBSTRUCTURE
       1 MOL1            1 RESIDUE      1      MOL     
@<SCITEGIC>MOL_PROPERTY
VConf Rank
SciTegic.value.IntegerValue
421

@<SCITEGIC>MOL_PROPERTY
Conf_Id
SciTegic.value.IntegerValue
7

@<SCITEGIC>MOL_PROPERTY
Delta U+W
SciTegic.value.DoubleValue
0.000

@<SCITEGIC>MOL_PROPERTY
U+W
SciTegic.value.DoubleValue
-15.865

@<SCITEGIC>MOL_PROPERTY
Grad RMS
SciTegic.value.DoubleValue
0.000000

@<SCITEGIC>MOL_PROPERTY
U
SciTegic.value.DoubleValue
44.664

@<SCITEGIC>MOL_PROPERTY
W
SciTegic.value.DoubleValue
-60.529

@<SCITEGIC>MOL_PROPERTY
W(PB)
SciTegic.value.DoubleValue
-62.309

@<SCITEGIC>MOL_PROPERTY
W(SA)
SciTegic.value.DoubleValue
1.780

@<SCITEGIC>MOL_PROPERTY
Valence
SciTegic.value.DoubleValue
0.872

@<SCITEGIC>MOL_PROPERTY
Coulomb
SciTegic.value.DoubleValue
43.648

@<SCITEGIC>MOL_PROPERTY
VdW
SciTegic.value.DoubleValue
0.144

@<SCITEGIC>MOL_PROPERTY
VdW6
SciTegic.value.DoubleValue
-2.370

@<SCITEGIC>MOL_PROPERTY
VdW12
SciTegic.value.DoubleValue
2.515

@<SCITEGIC>MOL_PROPERTY
Bond
SciTegic.value.DoubleValue
0.080

@<SCITEGIC>MOL_PROPERTY
Angle
SciTegic.value.DoubleValue
0.376

@<SCITEGIC>MOL_PROPERTY
Pdih
SciTegic.value.DoubleValue
0.416

@<SCITEGIC>MOL_PROPERTY
Idih
SciTegic.value.DoubleValue
0.000

@<SCITEGIC>MOL_PROPERTY
Tether
SciTegic.value.DoubleValue
0.000

@<TRIPOS>MOLECULE
guest-1_confgen4.mol2 : confsearch ligand conformer 422
          17          16           1
SMALL
USER_CHARGES
 
@<TRIPOS>ATOM
       1    N1      21.988689   20.352120   21.697199 N.4        1 MOL1        -0.5891
       2    H1      22.773788   19.694257   21.719177 H          1 MOL1         0.3726
       3    H2      21.886687   20.730286   22.643895 H          1 MOL1         0.3726
       4    H3      22.272486   21.132011   21.095475 H          1 MOL1         0.3726
       5    C1      20.712673   19.697254   21.207006 C.3        1 MOL1         0.0314
       6    H4      20.883916   19.345688   20.185984 H          1 MOL1         0.0999
       7    H5      19.931799   20.461681   21.180069 H          1 MOL1         0.0999
       8    C2      20.257036   18.519743   22.090082 C.3        1 MOL1        -0.1308
       9    H6      21.063653   17.776471   22.142944 H          1 MOL1         0.1025
      10    H7      20.086664   18.872530   23.115949 H          1 MOL1         0.1025
      11    C3      18.976319   17.835492   21.557569 C.3        1 MOL1        -0.1243
      12    H8      18.752863   16.959982   22.183295 H          1 MOL1         0.1025
      13    H9      19.155659   17.452272   20.543093 H          1 MOL1         0.1025
      14    C4      17.748605   18.774953   21.548173 C.3        1 MOL1        -0.2258
      15    H10     17.551073   19.176988   22.550407 H          1 MOL1         0.1036
      16    H11     16.851505   18.232717   21.222290 H          1 MOL1         0.1036
      17    H12     17.891968   19.619328   20.862193 H          1 MOL1         0.1036
@<TRIPOS>BOND
    1     1     2    1
    2     1     3    1
    3     1     4    1
    4     1     5    1
    5     5     6    1
    6     5     7    1
    7     5     8    1
    8     8     9    1
    9     8    10    1
   10     8    11    1
   11    11    12    1
   12    11    13    1
   13    11    14    1
   14    14    15    1
   15    14    16    1
   16    14    17    1
@<TRIPOS>SUBSTRUCTURE
       1 MOL1            1 RESIDUE      1      MOL     
@<SCITEGIC>MOL_PROPERTY
VConf Rank
SciTegic.value.IntegerValue
422

@<SCITEGIC>MOL_PROPERTY
Conf_Id
SciTegic.value.IntegerValue
36

@<SCITEGIC>MOL_PROPERTY
Delta U+W
SciTegic.value.DoubleValue
0.275

@<SCITEGIC>MOL_PROPERTY
U+W
SciTegic.value.DoubleValue
-15.590

@<SCITEGIC>MOL_PROPERTY
Grad RMS
SciTegic.value.DoubleValue
0.000000

@<SCITEGIC>MOL_PROPERTY
U
SciTegic.value.DoubleValue
45.174

@<SCITEGIC>MOL_PROPERTY
W
SciTegic.value.DoubleValue
-60.765

@<SCITEGIC>MOL_PROPERTY
W(PB)
SciTegic.value.DoubleValue
-62.518

@<SCITEGIC>MOL_PROPERTY
W(SA)
SciTegic.value.DoubleValue
1.754

@<SCITEGIC>MOL_PROPERTY
Valence
SciTegic.value.DoubleValue
1.161

@<SCITEGIC>MOL_PROPERTY
Coulomb
SciTegic.value.DoubleValue
43.789

@<SCITEGIC>MOL_PROPERTY
VdW
SciTegic.value.DoubleValue
0.224

@<SCITEGIC>MOL_PROPERTY
VdW6
SciTegic.value.DoubleValue
-2.897

@<SCITEGIC>MOL_PROPERTY
VdW12
SciTegic.value.DoubleValue
3.121

@<SCITEGIC>MOL_PROPERTY
Bond
SciTegic.value.DoubleValue
0.100

@<SCITEGIC>MOL_PROPERTY
Angle
SciTegic.value.DoubleValue
0.500

@<SCITEGIC>MOL_PROPERTY
Pdih
SciTegic.value.DoubleValue
0.561

@<SCITEGIC>MOL_PROPERTY
Idih
SciTegic.value.DoubleValue
0.000

@<SCITEGIC>MOL_PROPERTY
Tether
SciTegic.value.DoubleValue
0.000

@<TRIPOS>MOLECULE
guest-1_confgen4.mol2 : confsearch ligand conformer 423
          17          16           1
SMALL
USER_CHARGES
 
@<TRIPOS>ATOM
       1    N1      21.051741   17.879444   22.595553 N.4        1 MOL1        -0.5891
       2    H1      20.088233   17.841417   22.937680 H          1 MOL1         0.3726
       3    H2      21.571988   18.494914   23.228024 H          1 MOL1         0.3726
       4    H3      21.447958   16.940064   22.702319 H          1 MOL1         0.3726
       5    C1      21.119669   18.360445   21.158872 C.3        1 MOL1         0.0314
       6    H4      20.608173   17.632458   20.523491 H          1 MOL1         0.0999
       7    H5      22.175637   18.373158   20.875489 H          1 MOL1         0.0999
       8    C2      20.521024   19.764465   20.930912 C.3        1 MOL1        -0.1308
       9    H6      20.847328   20.445814   21.727792 H          1 MOL1         0.1025
      10    H7      20.947047   20.163143   20.000640 H          1 MOL1         0.1025
      11    C3      18.976926   19.790940   20.797623 C.3        1 MOL1        -0.1243
      12    H8      18.667603   19.154581   19.956558 H          1 MOL1         0.1025
      13    H9      18.669835   20.812873   20.534302 H          1 MOL1         0.1025
      14    C4      18.217886   19.362459   22.074002 C.3        1 MOL1        -0.2258
      15    H10     18.325057   18.288232   22.264337 H          1 MOL1         0.1036
      16    H11     17.144465   19.564666   21.964291 H          1 MOL1         0.1036
      17    H12     18.572630   19.915645   22.953374 H          1 MOL1         0.1036
@<TRIPOS>BOND
    1     1     2    1
    2     1     3    1
    3     1     4    1
    4     1     5    1
    5     5     6    1
    6     5     7    1
    7     5     8    1
    8     8     9    1
    9     8    10    1
   10     8    11    1
   11    11    12    1
   12    11    13    1
   13    11    14    1
   14    14    15    1
   15    14    16    1
   16    14    17    1
@<TRIPOS>SUBSTRUCTURE
       1 MOL1            1 RESIDUE      1      MOL     
@<SCITEGIC>MOL_PROPERTY
VConf Rank
SciTegic.value.IntegerValue
423

@<SCITEGIC>MOL_PROPERTY
Conf_Id
SciTegic.value.IntegerValue
19

@<SCITEGIC>MOL_PROPERTY
Delta U+W
SciTegic.value.DoubleValue
2.662

@<SCITEGIC>MOL_PROPERTY
U+W
SciTegic.value.DoubleValue
-13.203

@<SCITEGIC>MOL_PROPERTY
Grad RMS
SciTegic.value.DoubleValue
0.000000

@<SCITEGIC>MOL_PROPERTY
U
SciTegic.value.DoubleValue
47.423

@<SCITEGIC>MOL_PROPERTY
W
SciTegic.value.DoubleValue
-60.626

@<SCITEGIC>MOL_PROPERTY
W(PB)
SciTegic.value.DoubleValue
-62.328

@<SCITEGIC>MOL_PROPERTY
W(SA)
SciTegic.value.DoubleValue
1.702

@<SCITEGIC>MOL_PROPERTY
Valence
SciTegic.value.DoubleValue
2.414

@<SCITEGIC>MOL_PROPERTY
Coulomb
SciTegic.value.DoubleValue
44.831

@<SCITEGIC>MOL_PROPERTY
VdW
SciTegic.value.DoubleValue
0.178

@<SCITEGIC>MOL_PROPERTY
VdW6
SciTegic.value.DoubleValue
-3.743

@<SCITEGIC>MOL_PROPERTY
VdW12
SciTegic.value.DoubleValue
3.921

@<SCITEGIC>MOL_PROPERTY
Bond
SciTegic.value.DoubleValue
0.138

@<SCITEGIC>MOL_PROPERTY
Angle
SciTegic.value.DoubleValue
0.941

@<SCITEGIC>MOL_PROPERTY
Pdih
SciTegic.value.DoubleValue
1.335

@<SCITEGIC>MOL_PROPERTY
Idih
SciTegic.value.DoubleValue
0.000

@<SCITEGIC>MOL_PROPERTY
Tether
SciTegic.value.DoubleValue
0.000

@<TRIPOS>MOLECULE
guest-1_confgen4.mol2 : confsearch ligand conformer 424
          17          16           1
SMALL
USER_CHARGES
 
@<TRIPOS>ATOM
       1    N1      21.587197   19.708819   21.951786 N.4        1 MOL1        -0.5891
       2    H1      22.328665   19.828074   22.649515 H          1 MOL1         0.3726
       3    H2      21.842660   20.286389   21.145168 H          1 MOL1         0.3726
       4    H3      21.615795   18.733310   21.644527 H          1 MOL1         0.3726
       5    C1      20.226038   20.084296   22.505233 C.3        1 MOL1         0.0314
       6    H4      20.281545   21.134107   22.805819 H          1 MOL1         0.0999
       7    H5      20.037255   19.486091   23.400673 H          1 MOL1         0.0999
       8    C2      19.064000   19.908481   21.505048 C.3        1 MOL1        -0.1308
       9    H6      18.232007   20.539959   21.843972 H          1 MOL1         0.1025
      10    H7      19.354543   20.296464   20.519765 H          1 MOL1         0.1025
      11    C3      18.538800   18.455567   21.378917 C.3        1 MOL1        -0.1243
      12    H8      17.652914   18.463118   20.728425 H          1 MOL1         0.1025
      13    H9      18.192266   18.101376   22.359980 H          1 MOL1         0.1025
      14    C4      19.564255   17.453168   20.802275 C.3        1 MOL1        -0.2258
      15    H10     20.001208   17.824124   19.865997 H          1 MOL1         0.1036
      16    H11     19.077499   16.493439   20.585143 H          1 MOL1         0.1036
      17    H12     20.372564   17.250064   21.514360 H          1 MOL1         0.1036
@<TRIPOS>BOND
    1     1     2    1
    2     1     3    1
    3     1     4    1
    4     1     5    1
    5     5     6    1
    6     5     7    1
    7     5     8    1
    8     8     9    1
    9     8    10    1
   10     8    11    1
   11    11    12    1
   12    11    13    1
   13    11    14    1
   14    14    15    1
   15    14    16    1
   16    14    17    1
@<TRIPOS>SUBSTRUCTURE
       1 MOL1            1 RESIDUE      1      MOL     
@<SCITEGIC>MOL_PROPERTY
VConf Rank
SciTegic.value.IntegerValue
424

@<SCITEGIC>MOL_PROPERTY
Conf_Id
SciTegic.value.IntegerValue
44

@<SCITEGIC>MOL_PROPERTY
Delta U+W
SciTegic.value.DoubleValue
2.712

@<SCITEGIC>MOL_PROPERTY
U+W
SciTegic.value.DoubleValue
-13.153

@<SCITEGIC>MOL_PROPERTY
Grad RMS
SciTegic.value.DoubleValue
0.000000

@<SCITEGIC>MOL_PROPERTY
U
SciTegic.value.DoubleValue
47.423

@<SCITEGIC>MOL_PROPERTY
W
SciTegic.value.DoubleValue
-60.576

@<SCITEGIC>MOL_PROPERTY
W(PB)
SciTegic.value.DoubleValue
-62.262

@<SCITEGIC>MOL_PROPERTY
W(SA)
SciTegic.value.DoubleValue
1.687

@<SCITEGIC>MOL_PROPERTY
Valence
SciTegic.value.DoubleValue
2.414

@<SCITEGIC>MOL_PROPERTY
Coulomb
SciTegic.value.DoubleValue
44.831

@<SCITEGIC>MOL_PROPERTY
VdW
SciTegic.value.DoubleValue
0.178

@<SCITEGIC>MOL_PROPERTY
VdW6
SciTegic.value.DoubleValue
-3.743

@<SCITEGIC>MOL_PROPERTY
VdW12
SciTegic.value.DoubleValue
3.922

@<SCITEGIC>MOL_PROPERTY
Bond
SciTegic.value.DoubleValue
0.138

@<SCITEGIC>MOL_PROPERTY
Angle
SciTegic.value.DoubleValue
0.941

@<SCITEGIC>MOL_PROPERTY
Pdih
SciTegic.value.DoubleValue
1.335

@<SCITEGIC>MOL_PROPERTY
Idih
SciTegic.value.DoubleValue
0.000

@<SCITEGIC>MOL_PROPERTY
Tether
SciTegic.value.DoubleValue
0.000

@<TRIPOS>MOLECULE
guest-1_confgen4.mol2 : confsearch ligand conformer 425
          17          16           1
SMALL
USER_CHARGES
 
@<TRIPOS>ATOM
       1    N1      19.890088   18.309455   19.751689 N.4        1 MOL1        -0.5891
       2    H1      19.240900   17.745829   20.307861 H          1 MOL1         0.3726
       3    H2      20.712170   17.727730   19.564188 H          1 MOL1         0.3726
       4    H3      19.436988   18.484164   18.849002 H          1 MOL1         0.3726
       5    C1      20.259355   19.600406   20.456633 C.3        1 MOL1         0.0314
       6    H4      19.345501   20.183102   20.598547 H          1 MOL1         0.0999
       7    H5      20.920274   20.164792   19.793164 H          1 MOL1         0.0999
       8    C2      20.958451   19.389898   21.815629 C.3        1 MOL1        -0.1308
       9    H6      21.895244   18.839281   21.657548 H          1 MOL1         0.1025
      10    H7      21.244557   20.370316   22.219026 H          1 MOL1         0.1025
      11    C3      20.092807   18.642315   22.860300 C.3        1 MOL1        -0.1243
      12    H8      20.675434   18.526850   23.785026 H          1 MOL1         0.1025
      13    H9      19.874486   17.624112   22.510653 H          1 MOL1         0.1025
      14    C4      18.771455   19.374955   23.187506 C.3        1 MOL1        -0.2258
      15    H10     18.963633   20.396400   23.540755 H          1 MOL1         0.1036
      16    H11     18.222960   18.845426   23.977267 H          1 MOL1         0.1036
      17    H12     18.114337   19.433734   22.310756 H          1 MOL1         0.1036
@<TRIPOS>BOND
    1     1     2    1
    2     1     3    1
    3     1     4    1
    4     1     5    1
    5     5     6    1
    6     5     7    1
    7     5     8    1
    8     8     9    1
    9     8    10    1
   10     8    11    1
   11    11    12    1
   12    11    13    1
   13    11    14    1
   14    14    15    1
   15    14    16    1
   16    14    17    1
@<TRIPOS>SUBSTRUCTURE
       1 MOL1            1 RESIDUE      1      MOL     
@<SCITEGIC>MOL_PROPERTY
VConf Rank
SciTegic.value.IntegerValue
425

@<SCITEGIC>MOL_PROPERTY
Conf_Id
SciTegic.value.IntegerValue
1

@<SCITEGIC>MOL_PROPERTY
Delta U+W
SciTegic.value.DoubleValue
0.685

@<SCITEGIC>MOL_PROPERTY
U+W
SciTegic.value.DoubleValue
-15.179

@<SCITEGIC>MOL_PROPERTY
Grad RMS
SciTegic.value.DoubleValue
0.000000

@<SCITEGIC>MOL_PROPERTY
U
SciTegic.value.DoubleValue
45.697

@<SCITEGIC>MOL_PROPERTY
W
SciTegic.value.DoubleValue
-60.876

@<SCITEGIC>MOL_PROPERTY
W(PB)
SciTegic.value.DoubleValue
-62.586

@<SCITEGIC>MOL_PROPERTY
W(SA)
SciTegic.value.DoubleValue
1.710

@<SCITEGIC>MOL_PROPERTY
Valence
SciTegic.value.DoubleValue
1.263

@<SCITEGIC>MOL_PROPERTY
Coulomb
SciTegic.value.DoubleValue
44.179

@<SCITEGIC>MOL_PROPERTY
VdW
SciTegic.value.DoubleValue
0.255

@<SCITEGIC>MOL_PROPERTY
VdW6
SciTegic.value.DoubleValue
-3.552

@<SCITEGIC>MOL_PROPERTY
VdW12
SciTegic.value.DoubleValue
3.807

@<SCITEGIC>MOL_PROPERTY
Bond
SciTegic.value.DoubleValue
0.125

@<SCITEGIC>MOL_PROPERTY
Angle
SciTegic.value.DoubleValue
0.616

@<SCITEGIC>MOL_PROPERTY
Pdih
SciTegic.value.DoubleValue
0.521

@<SCITEGIC>MOL_PROPERTY
Idih
SciTegic.value.DoubleValue
0.000

@<SCITEGIC>MOL_PROPERTY
Tether
SciTegic.value.DoubleValue
0.000

@<TRIPOS>MOLECULE
guest-1_confgen4.mol2 : confsearch ligand conformer 426
          17          16           1
SMALL
USER_CHARGES
 
@<TRIPOS>ATOM
       1    N1      18.681366   20.541460   21.934420 N.4        1 MOL1        -0.5891
       2    H1      19.159257   21.444748   21.863235 H          1 MOL1         0.3726
       3    H2      18.922603   20.142378   22.846005 H          1 MOL1         0.3726
       4    H3      17.675379   20.737430   21.950344 H          1 MOL1         0.3726
       5    C1      19.056876   19.611500   20.796869 C.3        1 MOL1         0.0314
       6    H4      18.738051   20.082234   19.862900 H          1 MOL1         0.0999
       7    H5      18.492533   18.683117   20.916979 H          1 MOL1         0.0999
       8    C2      20.565358   19.297307   20.721466 C.3        1 MOL1        -0.1308
       9    H6      20.750606   18.674615   19.836174 H          1 MOL1         0.1025
      10    H7      21.120317   20.230946   20.559957 H          1 MOL1         0.1025
      11    C3      21.122607   18.578436   21.975362 C.3        1 MOL1        -0.1243
      12    H8      21.027896   19.227852   22.856239 H          1 MOL1         0.1025
      13    H9      22.199884   18.410231   21.837212 H          1 MOL1         0.1025
      14    C4      20.434032   17.222270   22.251905 C.3        1 MOL1        -0.2258
      15    H10     20.903278   16.719599   23.107533 H          1 MOL1         0.1036
      16    H11     20.516212   16.553952   21.384919 H          1 MOL1         0.1036
      17    H12     19.369730   17.349965   22.486223 H          1 MOL1         0.1036
@<TRIPOS>BOND
    1     1     2    1
    2     1     3    1
    3     1     4    1
    4     1     5    1
    5     5     6    1
    6     5     7    1
    7     5     8    1
    8     8     9    1
    9     8    10    1
   10     8    11    1
   11    11    12    1
   12    11    13    1
   13    11    14    1
   14    14    15    1
   15    14    16    1
   16    14    17    1
@<TRIPOS>SUBSTRUCTURE
       1 MOL1            1 RESIDUE      1      MOL     
@<SCITEGIC>MOL_PROPERTY
VConf Rank
SciTegic.value.IntegerValue
426

@<SCITEGIC>MOL_PROPERTY
Conf_Id
SciTegic.value.IntegerValue
43

@<SCITEGIC>MOL_PROPERTY
Delta U+W
SciTegic.value.DoubleValue
0.642

@<SCITEGIC>MOL_PROPERTY
U+W
SciTegic.value.DoubleValue
-15.222

@<SCITEGIC>MOL_PROPERTY
Grad RMS
SciTegic.value.DoubleValue
0.000000

@<SCITEGIC>MOL_PROPERTY
U
SciTegic.value.DoubleValue
45.697

@<SCITEGIC>MOL_PROPERTY
W
SciTegic.value.DoubleValue
-60.919

@<SCITEGIC>MOL_PROPERTY
W(PB)
SciTegic.value.DoubleValue
-62.631

@<SCITEGIC>MOL_PROPERTY
W(SA)
SciTegic.value.DoubleValue
1.712

@<SCITEGIC>MOL_PROPERTY
Valence
SciTegic.value.DoubleValue
1.262

@<SCITEGIC>MOL_PROPERTY
Coulomb
SciTegic.value.DoubleValue
44.179

@<SCITEGIC>MOL_PROPERTY
VdW
SciTegic.value.DoubleValue
0.255

@<SCITEGIC>MOL_PROPERTY
VdW6
SciTegic.value.DoubleValue
-3.552

@<SCITEGIC>MOL_PROPERTY
VdW12
SciTegic.value.DoubleValue
3.807

@<SCITEGIC>MOL_PROPERTY
Bond
SciTegic.value.DoubleValue
0.125

@<SCITEGIC>MOL_PROPERTY
Angle
SciTegic.value.DoubleValue
0.616

@<SCITEGIC>MOL_PROPERTY
Pdih
SciTegic.value.DoubleValue
0.521

@<SCITEGIC>MOL_PROPERTY
Idih
SciTegic.value.DoubleValue
0.000

@<SCITEGIC>MOL_PROPERTY
Tether
SciTegic.value.DoubleValue
0.000

@<TRIPOS>MOLECULE
guest-1_confgen4.mol2 : confsearch ligand conformer 427
          17          16           1
SMALL
USER_CHARGES
 
@<TRIPOS>ATOM
       1    N1      19.682887   21.277156   22.868139 N.4        1 MOL1        -0.5891
       2    H1      19.067492   21.740564   22.192685 H          1 MOL1         0.3726
       3    H2      20.628719   21.637825   22.709971 H          1 MOL1         0.3726
       4    H3      19.395610   21.597152   23.798721 H          1 MOL1         0.3726
       5    C1      19.623310   19.767389   22.748092 C.3        1 MOL1         0.0314
       6    H4      18.597666   19.452230   22.958454 H          1 MOL1         0.0999
       7    H5      20.276460   19.341746   23.514739 H          1 MOL1         0.0999
       8    C2      20.048914   19.251769   21.361276 C.3        1 MOL1        -0.1308
       9    H6      19.400705   19.693339   20.592620 H          1 MOL1         0.1025
      10    H7      21.073763   19.583104   21.147055 H          1 MOL1         0.1025
      11    C3      19.973778   17.711139   21.281686 C.3        1 MOL1        -0.1243
      12    H8      18.948875   17.378658   21.499298 H          1 MOL1         0.1025
      13    H9      20.619938   17.268555   22.052998 H          1 MOL1         0.1025
      14    C4      20.399264   17.186587   19.893248 C.3        1 MOL1        -0.2258
      15    H10     20.338943   16.091087   19.857333 H          1 MOL1         0.1036
      16    H11     21.433154   17.474158   19.661771 H          1 MOL1         0.1036
      17    H12     19.748928   17.585186   19.103697 H          1 MOL1         0.1036
@<TRIPOS>BOND
    1     1     2    1
    2     1     3    1
    3     1     4    1
    4     1     5    1
    5     5     6    1
    6     5     7    1
    7     5     8    1
    8     8     9    1
    9     8    10    1
   10     8    11    1
   11    11    12    1
   12    11    13    1
   13    11    14    1
   14    14    15    1
   15    14    16    1
   16    14    17    1
@<TRIPOS>SUBSTRUCTURE
       1 MOL1            1 RESIDUE      1      MOL     
@<SCITEGIC>MOL_PROPERTY
VConf Rank
SciTegic.value.IntegerValue
427

@<SCITEGIC>MOL_PROPERTY
Conf_Id
SciTegic.value.IntegerValue
7

@<SCITEGIC>MOL_PROPERTY
Delta U+W
SciTegic.value.DoubleValue
0.000

@<SCITEGIC>MOL_PROPERTY
U+W
SciTegic.value.DoubleValue
-15.865

@<SCITEGIC>MOL_PROPERTY
Grad RMS
SciTegic.value.DoubleValue
0.000000

@<SCITEGIC>MOL_PROPERTY
U
SciTegic.value.DoubleValue
44.664

@<SCITEGIC>MOL_PROPERTY
W
SciTegic.value.DoubleValue
-60.529

@<SCITEGIC>MOL_PROPERTY
W(PB)
SciTegic.value.DoubleValue
-62.309

@<SCITEGIC>MOL_PROPERTY
W(SA)
SciTegic.value.DoubleValue
1.780

@<SCITEGIC>MOL_PROPERTY
Valence
SciTegic.value.DoubleValue
0.872

@<SCITEGIC>MOL_PROPERTY
Coulomb
SciTegic.value.DoubleValue
43.648

@<SCITEGIC>MOL_PROPERTY
VdW
SciTegic.value.DoubleValue
0.144

@<SCITEGIC>MOL_PROPERTY
VdW6
SciTegic.value.DoubleValue
-2.370

@<SCITEGIC>MOL_PROPERTY
VdW12
SciTegic.value.DoubleValue
2.515

@<SCITEGIC>MOL_PROPERTY
Bond
SciTegic.value.DoubleValue
0.080

@<SCITEGIC>MOL_PROPERTY
Angle
SciTegic.value.DoubleValue
0.376

@<SCITEGIC>MOL_PROPERTY
Pdih
SciTegic.value.DoubleValue
0.416

@<SCITEGIC>MOL_PROPERTY
Idih
SciTegic.value.DoubleValue
0.000

@<SCITEGIC>MOL_PROPERTY
Tether
SciTegic.value.DoubleValue
0.000

@<TRIPOS>MOLECULE
guest-1_confgen4.mol2 : confsearch ligand conformer 428
          17          16           1
SMALL
USER_CHARGES
 
@<TRIPOS>ATOM
       1    N1      18.156161   19.916738   20.201535 N.4        1 MOL1        -0.5891
       2    H1      17.523078   20.491395   20.766002 H          1 MOL1         0.3726
       3    H2      17.683921   19.022676   20.036343 H          1 MOL1         0.3726
       4    H3      18.242860   20.378898   19.290636 H          1 MOL1         0.3726
       5    C1      19.503669   19.731868   20.870414 C.3        1 MOL1         0.0314
       6    H4      19.960980   20.718058   20.987482 H          1 MOL1         0.0999
       7    H5      20.132561   19.139524   20.200742 H          1 MOL1         0.0999
       8    C2      19.409575   19.038913   22.243338 C.3        1 MOL1        -0.1308
       9    H6      18.744033   19.620474   22.895042 H          1 MOL1         0.1025
      10    H7      18.948731   18.049096   22.125977 H          1 MOL1         0.1025
      11    C3      20.786192   18.891587   22.932704 C.3        1 MOL1        -0.1243
      12    H8      20.639550   18.466043   23.935396 H          1 MOL1         0.1025
      13    H9      21.234184   19.884293   23.081093 H          1 MOL1         0.1025
      14    C4      21.764861   17.993261   22.142023 C.3        1 MOL1        -0.2258
      15    H10     21.338148   16.995744   21.974690 H          1 MOL1         0.1036
      16    H11     22.704217   17.866854   22.695772 H          1 MOL1         0.1036
      17    H12     22.012662   18.428351   21.165610 H          1 MOL1         0.1036
@<TRIPOS>BOND
    1     1     2    1
    2     1     3    1
    3     1     4    1
    4     1     5    1
    5     5     6    1
    6     5     7    1
    7     5     8    1
    8     8     9    1
    9     8    10    1
   10     8    11    1
   11    11    12    1
   12    11    13    1
   13    11    14    1
   14    14    15    1
   15    14    16    1
   16    14    17    1
@<TRIPOS>SUBSTRUCTURE
       1 MOL1            1 RESIDUE      1      MOL     
@<SCITEGIC>MOL_PROPERTY
VConf Rank
SciTegic.value.IntegerValue
428

@<SCITEGIC>MOL_PROPERTY
Conf_Id
SciTegic.value.IntegerValue
36

@<SCITEGIC>MOL_PROPERTY
Delta U+W
SciTegic.value.DoubleValue
0.275

@<SCITEGIC>MOL_PROPERTY
U+W
SciTegic.value.DoubleValue
-15.590

@<SCITEGIC>MOL_PROPERTY
Grad RMS
SciTegic.value.DoubleValue
0.000000

@<SCITEGIC>MOL_PROPERTY
U
SciTegic.value.DoubleValue
45.174

@<SCITEGIC>MOL_PROPERTY
W
SciTegic.value.DoubleValue
-60.765

@<SCITEGIC>MOL_PROPERTY
W(PB)
SciTegic.value.DoubleValue
-62.518

@<SCITEGIC>MOL_PROPERTY
W(SA)
SciTegic.value.DoubleValue
1.754

@<SCITEGIC>MOL_PROPERTY
Valence
SciTegic.value.DoubleValue
1.161

@<SCITEGIC>MOL_PROPERTY
Coulomb
SciTegic.value.DoubleValue
43.789

@<SCITEGIC>MOL_PROPERTY
VdW
SciTegic.value.DoubleValue
0.224

@<SCITEGIC>MOL_PROPERTY
VdW6
SciTegic.value.DoubleValue
-2.897

@<SCITEGIC>MOL_PROPERTY
VdW12
SciTegic.value.DoubleValue
3.121

@<SCITEGIC>MOL_PROPERTY
Bond
SciTegic.value.DoubleValue
0.100

@<SCITEGIC>MOL_PROPERTY
Angle
SciTegic.value.DoubleValue
0.500

@<SCITEGIC>MOL_PROPERTY
Pdih
SciTegic.value.DoubleValue
0.561

@<SCITEGIC>MOL_PROPERTY
Idih
SciTegic.value.DoubleValue
0.000

@<SCITEGIC>MOL_PROPERTY
Tether
SciTegic.value.DoubleValue
0.000

@<TRIPOS>MOLECULE
guest-1_confgen4.mol2 : confsearch ligand conformer 429
          17          16           1
SMALL
USER_CHARGES
 
@<TRIPOS>ATOM
       1    N1      21.406044   19.048619   22.740522 N.4        1 MOL1        -0.5891
       2    H1      20.948629   19.961455   22.674597 H          1 MOL1         0.3726
       3    H2      22.232378   19.081303   22.135887 H          1 MOL1         0.3726
       4    H3      21.745484   18.949133   23.702658 H          1 MOL1         0.3726
       5    C1      20.468843   17.920843   22.353475 C.3        1 MOL1         0.0314
       6    H4      19.644406   17.891618   23.070937 H          1 MOL1         0.0999
       7    H5      21.033045   16.989140   22.449086 H          1 MOL1         0.0999
       8    C2      19.909439   18.024877   20.918952 C.3        1 MOL1        -0.1308
       9    H6      20.711520   18.302342   20.222239 H          1 MOL1         0.1025
      10    H7      19.579564   17.022661   20.614662 H          1 MOL1         0.1025
      11    C3      18.705583   18.989403   20.766889 C.3        1 MOL1        -0.1243
      12    H8      17.886045   18.663896   21.422957 H          1 MOL1         0.1025
      13    H9      18.323510   18.906638   19.739680 H          1 MOL1         0.1025
      14    C4      19.035025   20.472439   21.051414 C.3        1 MOL1        -0.2258
      15    H10     19.221401   20.645803   22.117662 H          1 MOL1         0.1036
      16    H11     18.190208   21.111809   20.763931 H          1 MOL1         0.1036
      17    H12     19.912074   20.802737   20.479712 H          1 MOL1         0.1036
@<TRIPOS>BOND
    1     1     2    1
    2     1     3    1
    3     1     4    1
    4     1     5    1
    5     5     6    1
    6     5     7    1
    7     5     8    1
    8     8     9    1
    9     8    10    1
   10     8    11    1
   11    11    12    1
   12    11    13    1
   13    11    14    1
   14    14    15    1
   15    14    16    1
   16    14    17    1
@<TRIPOS>SUBSTRUCTURE
       1 MOL1            1 RESIDUE      1      MOL     
@<SCITEGIC>MOL_PROPERTY
VConf Rank
SciTegic.value.IntegerValue
429

@<SCITEGIC>MOL_PROPERTY
Conf_Id
SciTegic.value.IntegerValue
19

@<SCITEGIC>MOL_PROPERTY
Delta U+W
SciTegic.value.DoubleValue
2.662

@<SCITEGIC>MOL_PROPERTY
U+W
SciTegic.value.DoubleValue
-13.203

@<SCITEGIC>MOL_PROPERTY
Grad RMS
SciTegic.value.DoubleValue
0.000000

@<SCITEGIC>MOL_PROPERTY
U
SciTegic.value.DoubleValue
47.423

@<SCITEGIC>MOL_PROPERTY
W
SciTegic.value.DoubleValue
-60.626

@<SCITEGIC>MOL_PROPERTY
W(PB)
SciTegic.value.DoubleValue
-62.328

@<SCITEGIC>MOL_PROPERTY
W(SA)
SciTegic.value.DoubleValue
1.702

@<SCITEGIC>MOL_PROPERTY
Valence
SciTegic.value.DoubleValue
2.414

@<SCITEGIC>MOL_PROPERTY
Coulomb
SciTegic.value.DoubleValue
44.831

@<SCITEGIC>MOL_PROPERTY
VdW
SciTegic.value.DoubleValue
0.178

@<SCITEGIC>MOL_PROPERTY
VdW6
SciTegic.value.DoubleValue
-3.743

@<SCITEGIC>MOL_PROPERTY
VdW12
SciTegic.value.DoubleValue
3.921

@<SCITEGIC>MOL_PROPERTY
Bond
SciTegic.value.DoubleValue
0.138

@<SCITEGIC>MOL_PROPERTY
Angle
SciTegic.value.DoubleValue
0.941

@<SCITEGIC>MOL_PROPERTY
Pdih
SciTegic.value.DoubleValue
1.335

@<SCITEGIC>MOL_PROPERTY
Idih
SciTegic.value.DoubleValue
0.000

@<SCITEGIC>MOL_PROPERTY
Tether
SciTegic.value.DoubleValue
0.000

@<TRIPOS>MOLECULE
guest-1_confgen4.mol2 : confsearch ligand conformer 430
          17          16           1
SMALL
USER_CHARGES
 
@<TRIPOS>ATOM
       1    N1      21.249672   19.155743   22.854057 N.4        1 MOL1        -0.5891
       2    H1      22.074102   18.696797   23.254691 H          1 MOL1         0.3726
       3    H2      21.010212   19.932923   23.477060 H          1 MOL1         0.3726
       4    H3      21.535601   19.563604   21.960336 H          1 MOL1         0.3726
       5    C1      20.092052   18.190352   22.686799 C.3        1 MOL1         0.0314
       6    H4      19.850583   17.805239   23.681242 H          1 MOL1         0.0999
       7    H5      20.425275   17.350592   22.071114 H          1 MOL1         0.0999
       8    C2      18.825104   18.819769   22.070124 C.3        1 MOL1        -0.1308
       9    H6      17.970659   18.184725   22.339362 H          1 MOL1         0.1025
      10    H7      18.629917   19.797838   22.529485 H          1 MOL1         0.1025
      11    C3      18.856828   18.946227   20.525551 C.3        1 MOL1        -0.1243
      12    H8      17.874170   19.304057   20.187421 H          1 MOL1         0.1025
      13    H9      18.989250   17.952056   20.075986 H          1 MOL1         0.1025
      14    C4      19.942271   19.904604   19.984991 C.3        1 MOL1        -0.2258
      15    H10     19.896976   20.880842   20.485051 H          1 MOL1         0.1036
      16    H11     19.798823   20.074327   18.909922 H          1 MOL1         0.1036
      17    H12     20.947716   19.487150   20.113411 H          1 MOL1         0.1036
@<TRIPOS>BOND
    1     1     2    1
    2     1     3    1
    3     1     4    1
    4     1     5    1
    5     5     6    1
    6     5     7    1
    7     5     8    1
    8     8     9    1
    9     8    10    1
   10     8    11    1
   11    11    12    1
   12    11    13    1
   13    11    14    1
   14    14    15    1
   15    14    16    1
   16    14    17    1
@<TRIPOS>SUBSTRUCTURE
       1 MOL1            1 RESIDUE      1      MOL     
@<SCITEGIC>MOL_PROPERTY
VConf Rank
SciTegic.value.IntegerValue
430

@<SCITEGIC>MOL_PROPERTY
Conf_Id
SciTegic.value.IntegerValue
44

@<SCITEGIC>MOL_PROPERTY
Delta U+W
SciTegic.value.DoubleValue
2.712

@<SCITEGIC>MOL_PROPERTY
U+W
SciTegic.value.DoubleValue
-13.153

@<SCITEGIC>MOL_PROPERTY
Grad RMS
SciTegic.value.DoubleValue
0.000000

@<SCITEGIC>MOL_PROPERTY
U
SciTegic.value.DoubleValue
47.423

@<SCITEGIC>MOL_PROPERTY
W
SciTegic.value.DoubleValue
-60.576

@<SCITEGIC>MOL_PROPERTY
W(PB)
SciTegic.value.DoubleValue
-62.262

@<SCITEGIC>MOL_PROPERTY
W(SA)
SciTegic.value.DoubleValue
1.687

@<SCITEGIC>MOL_PROPERTY
Valence
SciTegic.value.DoubleValue
2.414

@<SCITEGIC>MOL_PROPERTY
Coulomb
SciTegic.value.DoubleValue
44.831

@<SCITEGIC>MOL_PROPERTY
VdW
SciTegic.value.DoubleValue
0.178

@<SCITEGIC>MOL_PROPERTY
VdW6
SciTegic.value.DoubleValue
-3.743

@<SCITEGIC>MOL_PROPERTY
VdW12
SciTegic.value.DoubleValue
3.922

@<SCITEGIC>MOL_PROPERTY
Bond
SciTegic.value.DoubleValue
0.138

@<SCITEGIC>MOL_PROPERTY
Angle
SciTegic.value.DoubleValue
0.941

@<SCITEGIC>MOL_PROPERTY
Pdih
SciTegic.value.DoubleValue
1.335

@<SCITEGIC>MOL_PROPERTY
Idih
SciTegic.value.DoubleValue
0.000

@<SCITEGIC>MOL_PROPERTY
Tether
SciTegic.value.DoubleValue
0.000

@<TRIPOS>MOLECULE
guest-1_confgen4.mol2 : confsearch ligand conformer 431
          17          16           1
SMALL
USER_CHARGES
 
@<TRIPOS>ATOM
       1    N1      19.021491   20.734443   22.114293 N.4        1 MOL1        -0.5891
       2    H1      19.585282   20.436781   22.915532 H          1 MOL1         0.3726
       3    H2      18.039303   20.580324   22.361135 H          1 MOL1         0.3726
       4    H3      19.148909   21.746985   22.018425 H          1 MOL1         0.3726
       5    C1      19.409531   19.994810   20.848502 C.3        1 MOL1         0.0314
       6    H4      20.454936   20.225303   20.627582 H          1 MOL1         0.0999
       7    H5      18.797184   20.387703   20.032289 H          1 MOL1         0.0999
       8    C2      19.221482   18.466229   20.937936 C.3        1 MOL1        -0.1308
       9    H6      18.161680   18.243505   21.119499 H          1 MOL1         0.1025
      10    H7      19.463701   18.024860   19.962064 H          1 MOL1         0.1025
      11    C3      20.083914   17.788297   22.031634 C.3        1 MOL1        -0.1243
      12    H8      19.873293   16.709621   22.030155 H          1 MOL1         0.1025
      13    H9      19.789235   18.153150   23.024962 H          1 MOL1         0.1025
      14    C4      21.600909   18.003992   21.826692 C.3        1 MOL1        -0.2258
      15    H10     21.920617   17.645622   20.839562 H          1 MOL1         0.1036
      16    H11     22.173863   17.453611   22.584169 H          1 MOL1         0.1036
      17    H12     21.873312   19.063528   21.911118 H          1 MOL1         0.1036
@<TRIPOS>BOND
    1     1     2    1
    2     1     3    1
    3     1     4    1
    4     1     5    1
    5     5     6    1
    6     5     7    1
    7     5     8    1
    8     8     9    1
    9     8    10    1
   10     8    11    1
   11    11    12    1
   12    11    13    1
   13    11    14    1
   14    14    15    1
   15    14    16    1
   16    14    17    1
@<TRIPOS>SUBSTRUCTURE
       1 MOL1            1 RESIDUE      1      MOL     
@<SCITEGIC>MOL_PROPERTY
VConf Rank
SciTegic.value.IntegerValue
431

@<SCITEGIC>MOL_PROPERTY
Conf_Id
SciTegic.value.IntegerValue
1

@<SCITEGIC>MOL_PROPERTY
Delta U+W
SciTegic.value.DoubleValue
0.685

@<SCITEGIC>MOL_PROPERTY
U+W
SciTegic.value.DoubleValue
-15.179

@<SCITEGIC>MOL_PROPERTY
Grad RMS
SciTegic.value.DoubleValue
0.000000

@<SCITEGIC>MOL_PROPERTY
U
SciTegic.value.DoubleValue
45.697

@<SCITEGIC>MOL_PROPERTY
W
SciTegic.value.DoubleValue
-60.876

@<SCITEGIC>MOL_PROPERTY
W(PB)
SciTegic.value.DoubleValue
-62.586

@<SCITEGIC>MOL_PROPERTY
W(SA)
SciTegic.value.DoubleValue
1.710

@<SCITEGIC>MOL_PROPERTY
Valence
SciTegic.value.DoubleValue
1.263

@<SCITEGIC>MOL_PROPERTY
Coulomb
SciTegic.value.DoubleValue
44.179

@<SCITEGIC>MOL_PROPERTY
VdW
SciTegic.value.DoubleValue
0.255

@<SCITEGIC>MOL_PROPERTY
VdW6
SciTegic.value.DoubleValue
-3.552

@<SCITEGIC>MOL_PROPERTY
VdW12
SciTegic.value.DoubleValue
3.807

@<SCITEGIC>MOL_PROPERTY
Bond
SciTegic.value.DoubleValue
0.125

@<SCITEGIC>MOL_PROPERTY
Angle
SciTegic.value.DoubleValue
0.616

@<SCITEGIC>MOL_PROPERTY
Pdih
SciTegic.value.DoubleValue
0.521

@<SCITEGIC>MOL_PROPERTY
Idih
SciTegic.value.DoubleValue
0.000

@<SCITEGIC>MOL_PROPERTY
Tether
SciTegic.value.DoubleValue
0.000

@<TRIPOS>MOLECULE
guest-1_confgen4.mol2 : confsearch ligand conformer 432
          17          16           1
SMALL
USER_CHARGES
 
@<TRIPOS>ATOM
       1    N1      20.748164   19.517388   19.858239 N.4        1 MOL1        -0.5891
       2    H1      21.747227   19.720548   19.958115 H          1 MOL1         0.3726
       3    H2      20.237244   20.340133   20.190655 H          1 MOL1         0.3726
       4    H3      20.560336   19.434105   18.854022 H          1 MOL1         0.3726
       5    C1      20.347382   18.264444   20.612800 C.3        1 MOL1         0.0314
       6    H4      20.900694   17.425280   20.182465 H          1 MOL1         0.0999
       7    H5      19.282099   18.090494   20.440405 H          1 MOL1         0.0999
       8    C2      20.624331   18.335078   22.128792 C.3        1 MOL1        -0.1308
       9    H6      20.364784   17.367597   22.578703 H          1 MOL1         0.1025
      10    H7      21.701844   18.468982   22.292452 H          1 MOL1         0.1025
      11    C3      19.849750   19.460430   22.858974 C.3        1 MOL1        -0.1243
      12    H8      20.166748   20.442545   22.482655 H          1 MOL1         0.1025
      13    H9      20.120021   19.442304   23.924116 H          1 MOL1         0.1025
      14    C4      18.315567   19.323042   22.727797 C.3        1 MOL1        -0.2258
      15    H10     17.807924   20.100854   23.312840 H          1 MOL1         0.1036
      16    H11     17.973504   18.348267   23.099111 H          1 MOL1         0.1036
      17    H12     17.988367   19.426550   21.685600 H          1 MOL1         0.1036
@<TRIPOS>BOND
    1     1     2    1
    2     1     3    1
    3     1     4    1
    4     1     5    1
    5     5     6    1
    6     5     7    1
    7     5     8    1
    8     8     9    1
    9     8    10    1
   10     8    11    1
   11    11    12    1
   12    11    13    1
   13    11    14    1
   14    14    15    1
   15    14    16    1
   16    14    17    1
@<TRIPOS>SUBSTRUCTURE
       1 MOL1            1 RESIDUE      1      MOL     
@<SCITEGIC>MOL_PROPERTY
VConf Rank
SciTegic.value.IntegerValue
432

@<SCITEGIC>MOL_PROPERTY
Conf_Id
SciTegic.value.IntegerValue
43

@<SCITEGIC>MOL_PROPERTY
Delta U+W
SciTegic.value.DoubleValue
0.642

@<SCITEGIC>MOL_PROPERTY
U+W
SciTegic.value.DoubleValue
-15.222

@<SCITEGIC>MOL_PROPERTY
Grad RMS
SciTegic.value.DoubleValue
0.000000

@<SCITEGIC>MOL_PROPERTY
U
SciTegic.value.DoubleValue
45.697

@<SCITEGIC>MOL_PROPERTY
W
SciTegic.value.DoubleValue
-60.919

@<SCITEGIC>MOL_PROPERTY
W(PB)
SciTegic.value.DoubleValue
-62.631

@<SCITEGIC>MOL_PROPERTY
W(SA)
SciTegic.value.DoubleValue
1.712

@<SCITEGIC>MOL_PROPERTY
Valence
SciTegic.value.DoubleValue
1.262

@<SCITEGIC>MOL_PROPERTY
Coulomb
SciTegic.value.DoubleValue
44.179

@<SCITEGIC>MOL_PROPERTY
VdW
SciTegic.value.DoubleValue
0.255

@<SCITEGIC>MOL_PROPERTY
VdW6
SciTegic.value.DoubleValue
-3.552

@<SCITEGIC>MOL_PROPERTY
VdW12
SciTegic.value.DoubleValue
3.807

@<SCITEGIC>MOL_PROPERTY
Bond
SciTegic.value.DoubleValue
0.125

@<SCITEGIC>MOL_PROPERTY
Angle
SciTegic.value.DoubleValue
0.616

@<SCITEGIC>MOL_PROPERTY
Pdih
SciTegic.value.DoubleValue
0.521

@<SCITEGIC>MOL_PROPERTY
Idih
SciTegic.value.DoubleValue
0.000

@<SCITEGIC>MOL_PROPERTY
Tether
SciTegic.value.DoubleValue
0.000

@<TRIPOS>MOLECULE
guest-1_confgen4.mol2 : confsearch ligand conformer 433
          17          16           1
SMALL
USER_CHARGES
 
@<TRIPOS>ATOM
       1    N1      19.321214   20.701255   23.471731 N.4        1 MOL1        -0.5891
       2    H1      19.344726   21.557865   22.910159 H          1 MOL1         0.3726
       3    H2      20.203128   20.658071   23.991403 H          1 MOL1         0.3726
       4    H3      18.574925   20.821419   24.164206 H          1 MOL1         0.3726
       5    C1      19.104286   19.468016   22.617669 C.3        1 MOL1         0.0314
       6    H4      18.136182   19.568437   22.119458 H          1 MOL1         0.0999
       7    H5      19.059196   18.600864   23.282153 H          1 MOL1         0.0999
       8    C2      20.208219   19.256800   21.565537 C.3        1 MOL1        -0.1308
       9    H6      20.260938   20.136110   20.909774 H          1 MOL1         0.1025
      10    H7      21.180746   19.171719   22.068470 H          1 MOL1         0.1025
      11    C3      19.949203   17.991708   20.718204 C.3        1 MOL1        -0.1243
      12    H8      18.974340   18.074826   20.217144 H          1 MOL1         0.1025
      13    H9      19.893098   17.111606   21.374405 H          1 MOL1         0.1025
      14    C4      21.052598   17.773366   19.660470 C.3        1 MOL1        -0.2258
      15    H10     20.850286   16.870585   19.069620 H          1 MOL1         0.1036
      16    H11     22.035649   17.652069   20.133868 H          1 MOL1         0.1036
      17    H12     21.109673   18.622929   18.967510 H          1 MOL1         0.1036
@<TRIPOS>BOND
    1     1     2    1
    2     1     3    1
    3     1     4    1
    4     1     5    1
    5     5     6    1
    6     5     7    1
    7     5     8    1
    8     8     9    1
    9     8    10    1
   10     8    11    1
   11    11    12    1
   12    11    13    1
   13    11    14    1
   14    14    15    1
   15    14    16    1
   16    14    17    1
@<TRIPOS>SUBSTRUCTURE
       1 MOL1            1 RESIDUE      1      MOL     
@<SCITEGIC>MOL_PROPERTY
VConf Rank
SciTegic.value.IntegerValue
433

@<SCITEGIC>MOL_PROPERTY
Conf_Id
SciTegic.value.IntegerValue
7

@<SCITEGIC>MOL_PROPERTY
Delta U+W
SciTegic.value.DoubleValue
0.000

@<SCITEGIC>MOL_PROPERTY
U+W
SciTegic.value.DoubleValue
-15.865

@<SCITEGIC>MOL_PROPERTY
Grad RMS
SciTegic.value.DoubleValue
0.000000

@<SCITEGIC>MOL_PROPERTY
U
SciTegic.value.DoubleValue
44.664

@<SCITEGIC>MOL_PROPERTY
W
SciTegic.value.DoubleValue
-60.529

@<SCITEGIC>MOL_PROPERTY
W(PB)
SciTegic.value.DoubleValue
-62.309

@<SCITEGIC>MOL_PROPERTY
W(SA)
SciTegic.value.DoubleValue
1.780

@<SCITEGIC>MOL_PROPERTY
Valence
SciTegic.value.DoubleValue
0.872

@<SCITEGIC>MOL_PROPERTY
Coulomb
SciTegic.value.DoubleValue
43.648

@<SCITEGIC>MOL_PROPERTY
VdW
SciTegic.value.DoubleValue
0.144

@<SCITEGIC>MOL_PROPERTY
VdW6
SciTegic.value.DoubleValue
-2.370

@<SCITEGIC>MOL_PROPERTY
VdW12
SciTegic.value.DoubleValue
2.515

@<SCITEGIC>MOL_PROPERTY
Bond
SciTegic.value.DoubleValue
0.080

@<SCITEGIC>MOL_PROPERTY
Angle
SciTegic.value.DoubleValue
0.376

@<SCITEGIC>MOL_PROPERTY
Pdih
SciTegic.value.DoubleValue
0.416

@<SCITEGIC>MOL_PROPERTY
Idih
SciTegic.value.DoubleValue
0.000

@<SCITEGIC>MOL_PROPERTY
Tether
SciTegic.value.DoubleValue
0.000

@<TRIPOS>MOLECULE
guest-1_confgen4.mol2 : confsearch ligand conformer 434
          17          16           1
SMALL
USER_CHARGES
 
@<TRIPOS>ATOM
       1    N1      22.059342   20.192518   21.912287 N.4        1 MOL1        -0.5891
       2    H1      22.385516   20.026855   22.869269 H          1 MOL1         0.3726
       3    H2      21.725418   21.160245   21.871720 H          1 MOL1         0.3726
       4    H3      22.883250   20.137555   21.304835 H          1 MOL1         0.3726
       5    C1      20.987116   19.204250   21.498750 C.3        1 MOL1         0.0314
       6    H4      21.419753   18.200844   21.536308 H          1 MOL1         0.0999
       7    H5      20.712311   19.420689   20.463146 H          1 MOL1         0.0999
       8    C2      19.732926   19.260686   22.391936 C.3        1 MOL1        -0.1308
       9    H6      20.025730   19.081689   23.435058 H          1 MOL1         0.1025
      10    H7      19.299371   20.268948   22.355517 H          1 MOL1         0.1025
      11    C3      18.662956   18.221049   21.984108 C.3        1 MOL1        -0.1243
      12    H8      17.834918   18.259131   22.705831 H          1 MOL1         0.1025
      13    H9      19.085477   17.208609   22.052103 H          1 MOL1         0.1025
      14    C4      18.103494   18.455727   20.562178 C.3        1 MOL1        -0.2258
      15    H10     17.680110   19.463966   20.465610 H          1 MOL1         0.1036
      16    H11     17.306210   17.735102   20.338469 H          1 MOL1         0.1036
      17    H12     18.881485   18.335912   19.797675 H          1 MOL1         0.1036
@<TRIPOS>BOND
    1     1     2    1
    2     1     3    1
    3     1     4    1
    4     1     5    1
    5     5     6    1
    6     5     7    1
    7     5     8    1
    8     8     9    1
    9     8    10    1
   10     8    11    1
   11    11    12    1
   12    11    13    1
   13    11    14    1
   14    14    15    1
   15    14    16    1
   16    14    17    1
@<TRIPOS>SUBSTRUCTURE
       1 MOL1            1 RESIDUE      1      MOL     
@<SCITEGIC>MOL_PROPERTY
VConf Rank
SciTegic.value.IntegerValue
434

@<SCITEGIC>MOL_PROPERTY
Conf_Id
SciTegic.value.IntegerValue
36

@<SCITEGIC>MOL_PROPERTY
Delta U+W
SciTegic.value.DoubleValue
0.275

@<SCITEGIC>MOL_PROPERTY
U+W
SciTegic.value.DoubleValue
-15.590

@<SCITEGIC>MOL_PROPERTY
Grad RMS
SciTegic.value.DoubleValue
0.000000

@<SCITEGIC>MOL_PROPERTY
U
SciTegic.value.DoubleValue
45.174

@<SCITEGIC>MOL_PROPERTY
W
SciTegic.value.DoubleValue
-60.765

@<SCITEGIC>MOL_PROPERTY
W(PB)
SciTegic.value.DoubleValue
-62.518

@<SCITEGIC>MOL_PROPERTY
W(SA)
SciTegic.value.DoubleValue
1.754

@<SCITEGIC>MOL_PROPERTY
Valence
SciTegic.value.DoubleValue
1.161

@<SCITEGIC>MOL_PROPERTY
Coulomb
SciTegic.value.DoubleValue
43.789

@<SCITEGIC>MOL_PROPERTY
VdW
SciTegic.value.DoubleValue
0.224

@<SCITEGIC>MOL_PROPERTY
VdW6
SciTegic.value.DoubleValue
-2.897

@<SCITEGIC>MOL_PROPERTY
VdW12
SciTegic.value.DoubleValue
3.121

@<SCITEGIC>MOL_PROPERTY
Bond
SciTegic.value.DoubleValue
0.100

@<SCITEGIC>MOL_PROPERTY
Angle
SciTegic.value.DoubleValue
0.500

@<SCITEGIC>MOL_PROPERTY
Pdih
SciTegic.value.DoubleValue
0.561

@<SCITEGIC>MOL_PROPERTY
Idih
SciTegic.value.DoubleValue
0.000

@<SCITEGIC>MOL_PROPERTY
Tether
SciTegic.value.DoubleValue
0.000

@<TRIPOS>MOLECULE
guest-1_confgen4.mol2 : confsearch ligand conformer 435
          17          16           1
SMALL
USER_CHARGES
 
@<TRIPOS>ATOM
       1    N1      18.501384   19.221121   22.757052 N.4        1 MOL1        -0.5891
       2    H1      18.196242   19.219206   21.780461 H          1 MOL1         0.3726
       3    H2      18.537637   20.199234   23.059478 H          1 MOL1         0.3726
       4    H3      17.763524   18.767601   23.305417 H          1 MOL1         0.3726
       5    C1      19.839274   18.528037   22.929437 C.3        1 MOL1         0.0314
       6    H4      19.723689   17.475498   22.657216 H          1 MOL1         0.0999
       7    H5      20.089843   18.576428   23.992644 H          1 MOL1         0.0999
       8    C2      20.988720   19.155535   22.112961 C.3        1 MOL1        -0.1308
       9    H6      20.951415   20.250125   22.191767 H          1 MOL1         0.1025
      10    H7      21.935352   18.852119   22.579516 H          1 MOL1         0.1025
      11    C3      21.030742   18.723230   20.624992 C.3        1 MOL1        -0.1243
      12    H8      21.131787   17.630701   20.560253 H          1 MOL1         0.1025
      13    H9      21.939913   19.139908   20.169165 H          1 MOL1         0.1025
      14    C4      19.810239   19.177786   19.792747 C.3        1 MOL1        -0.2258
      15    H10     18.904270   18.628494   20.074126 H          1 MOL1         0.1036
      16    H11     19.984637   18.986540   18.725898 H          1 MOL1         0.1036
      17    H12     19.624531   20.253153   19.912129 H          1 MOL1         0.1036
@<TRIPOS>BOND
    1     1     2    1
    2     1     3    1
    3     1     4    1
    4     1     5    1
    5     5     6    1
    6     5     7    1
    7     5     8    1
    8     8     9    1
    9     8    10    1
   10     8    11    1
   11    11    12    1
   12    11    13    1
   13    11    14    1
   14    14    15    1
   15    14    16    1
   16    14    17    1
@<TRIPOS>SUBSTRUCTURE
       1 MOL1            1 RESIDUE      1      MOL     
@<SCITEGIC>MOL_PROPERTY
VConf Rank
SciTegic.value.IntegerValue
435

@<SCITEGIC>MOL_PROPERTY
Conf_Id
SciTegic.value.IntegerValue
19

@<SCITEGIC>MOL_PROPERTY
Delta U+W
SciTegic.value.DoubleValue
2.662

@<SCITEGIC>MOL_PROPERTY
U+W
SciTegic.value.DoubleValue
-13.203

@<SCITEGIC>MOL_PROPERTY
Grad RMS
SciTegic.value.DoubleValue
0.000000

@<SCITEGIC>MOL_PROPERTY
U
SciTegic.value.DoubleValue
47.423

@<SCITEGIC>MOL_PROPERTY
W
SciTegic.value.DoubleValue
-60.626

@<SCITEGIC>MOL_PROPERTY
W(PB)
SciTegic.value.DoubleValue
-62.328

@<SCITEGIC>MOL_PROPERTY
W(SA)
SciTegic.value.DoubleValue
1.702

@<SCITEGIC>MOL_PROPERTY
Valence
SciTegic.value.DoubleValue
2.414

@<SCITEGIC>MOL_PROPERTY
Coulomb
SciTegic.value.DoubleValue
44.831

@<SCITEGIC>MOL_PROPERTY
VdW
SciTegic.value.DoubleValue
0.178

@<SCITEGIC>MOL_PROPERTY
VdW6
SciTegic.value.DoubleValue
-3.743

@<SCITEGIC>MOL_PROPERTY
VdW12
SciTegic.value.DoubleValue
3.921

@<SCITEGIC>MOL_PROPERTY
Bond
SciTegic.value.DoubleValue
0.138

@<SCITEGIC>MOL_PROPERTY
Angle
SciTegic.value.DoubleValue
0.941

@<SCITEGIC>MOL_PROPERTY
Pdih
SciTegic.value.DoubleValue
1.335

@<SCITEGIC>MOL_PROPERTY
Idih
SciTegic.value.DoubleValue
0.000

@<SCITEGIC>MOL_PROPERTY
Tether
SciTegic.value.DoubleValue
0.000

@<TRIPOS>MOLECULE
guest-1_confgen4.mol2 : confsearch ligand conformer 436
          17          16           1
SMALL
USER_CHARGES
 
@<TRIPOS>ATOM
       1    N1      19.037446   17.740555   22.599965 N.4        1 MOL1        -0.5891
       2    H1      18.229755   17.493684   23.180924 H          1 MOL1         0.3726
       3    H2      19.722411   16.986429   22.707654 H          1 MOL1         0.3726
       4    H3      18.724504   17.726013   21.625952 H          1 MOL1         0.3726
       5    C1      19.617825   19.088044   22.983985 C.3        1 MOL1         0.0314
       6    H4      19.926698   19.016700   24.030429 H          1 MOL1         0.0999
       7    H5      18.827023   19.839892   22.915728 H          1 MOL1         0.0999
       8    C2      20.827945   19.523902   22.131197 C.3        1 MOL1        -0.1308
       9    H6      21.387996   20.275084   22.703835 H          1 MOL1         0.1025
      10    H7      21.514018   18.677833   21.992634 H          1 MOL1         0.1025
      11    C3      20.457604   20.147672   20.761356 C.3        1 MOL1        -0.1243
      12    H8      21.378933   20.515486   20.288223 H          1 MOL1         0.1025
      13    H9      19.822545   21.031106   20.917128 H          1 MOL1         0.1025
      14    C4      19.757170   19.175603   19.784958 C.3        1 MOL1        -0.2258
      15    H10     20.321379   18.239648   19.680998 H          1 MOL1         0.1036
      16    H11     19.677839   19.628902   18.788272 H          1 MOL1         0.1036
      17    H12     18.738122   18.940294   20.113364 H          1 MOL1         0.1036
@<TRIPOS>BOND
    1     1     2    1
    2     1     3    1
    3     1     4    1
    4     1     5    1
    5     5     6    1
    6     5     7    1
    7     5     8    1
    8     8     9    1
    9     8    10    1
   10     8    11    1
   11    11    12    1
   12    11    13    1
   13    11    14    1
   14    14    15    1
   15    14    16    1
   16    14    17    1
@<TRIPOS>SUBSTRUCTURE
       1 MOL1            1 RESIDUE      1      MOL     
@<SCITEGIC>MOL_PROPERTY
VConf Rank
SciTegic.value.IntegerValue
436

@<SCITEGIC>MOL_PROPERTY
Conf_Id
SciTegic.value.IntegerValue
44

@<SCITEGIC>MOL_PROPERTY
Delta U+W
SciTegic.value.DoubleValue
2.712

@<SCITEGIC>MOL_PROPERTY
U+W
SciTegic.value.DoubleValue
-13.153

@<SCITEGIC>MOL_PROPERTY
Grad RMS
SciTegic.value.DoubleValue
0.000000

@<SCITEGIC>MOL_PROPERTY
U
SciTegic.value.DoubleValue
47.423

@<SCITEGIC>MOL_PROPERTY
W
SciTegic.value.DoubleValue
-60.576

@<SCITEGIC>MOL_PROPERTY
W(PB)
SciTegic.value.DoubleValue
-62.262

@<SCITEGIC>MOL_PROPERTY
W(SA)
SciTegic.value.DoubleValue
1.687

@<SCITEGIC>MOL_PROPERTY
Valence
SciTegic.value.DoubleValue
2.414

@<SCITEGIC>MOL_PROPERTY
Coulomb
SciTegic.value.DoubleValue
44.831

@<SCITEGIC>MOL_PROPERTY
VdW
SciTegic.value.DoubleValue
0.178

@<SCITEGIC>MOL_PROPERTY
VdW6
SciTegic.value.DoubleValue
-3.743

@<SCITEGIC>MOL_PROPERTY
VdW12
SciTegic.value.DoubleValue
3.922

@<SCITEGIC>MOL_PROPERTY
Bond
SciTegic.value.DoubleValue
0.138

@<SCITEGIC>MOL_PROPERTY
Angle
SciTegic.value.DoubleValue
0.941

@<SCITEGIC>MOL_PROPERTY
Pdih
SciTegic.value.DoubleValue
1.335

@<SCITEGIC>MOL_PROPERTY
Idih
SciTegic.value.DoubleValue
0.000

@<SCITEGIC>MOL_PROPERTY
Tether
SciTegic.value.DoubleValue
0.000

@<TRIPOS>MOLECULE
guest-1_confgen4.mol2 : confsearch ligand conformer 437
          17          16           1
SMALL
USER_CHARGES
 
@<TRIPOS>ATOM
       1    N1      19.844262   19.962859   23.355932 N.4        1 MOL1        -0.5891
       2    H1      18.900760   19.618504   23.156758 H          1 MOL1         0.3726
       3    H2      19.824783   20.981018   23.244793 H          1 MOL1         0.3726
       4    H3      20.028367   19.775098   24.346648 H          1 MOL1         0.3726
       5    C1      20.880036   19.315321   22.457196 C.3        1 MOL1         0.0314
       6    H4      20.868551   18.238867   22.646721 H          1 MOL1         0.0999
       7    H5      21.861189   19.699351   22.749426 H          1 MOL1         0.0999
       8    C2      20.654306   19.581441   20.954483 C.3        1 MOL1        -0.1308
       9    H6      20.708100   20.662184   20.767807 H          1 MOL1         0.1025
      10    H7      21.482169   19.132219   20.389996 H          1 MOL1         0.1025
      11    C3      19.311160   19.032364   20.412238 C.3        1 MOL1        -0.1243
      12    H8      19.232854   19.280406   19.344414 H          1 MOL1         0.1025
      13    H9      18.469881   19.539768   20.903608 H          1 MOL1         0.1025
      14    C4      19.168774   17.502670   20.584171 C.3        1 MOL1        -0.2258
      15    H10     19.998834   16.972187   20.099758 H          1 MOL1         0.1036
      16    H11     18.234622   17.149319   20.128682 H          1 MOL1         0.1036
      17    H12     19.149994   17.215187   21.642920 H          1 MOL1         0.1036
@<TRIPOS>BOND
    1     1     2    1
    2     1     3    1
    3     1     4    1
    4     1     5    1
    5     5     6    1
    6     5     7    1
    7     5     8    1
    8     8     9    1
    9     8    10    1
   10     8    11    1
   11    11    12    1
   12    11    13    1
   13    11    14    1
   14    14    15    1
   15    14    16    1
   16    14    17    1
@<TRIPOS>SUBSTRUCTURE
       1 MOL1            1 RESIDUE      1      MOL     
@<SCITEGIC>MOL_PROPERTY
VConf Rank
SciTegic.value.IntegerValue
437

@<SCITEGIC>MOL_PROPERTY
Conf_Id
SciTegic.value.IntegerValue
1

@<SCITEGIC>MOL_PROPERTY
Delta U+W
SciTegic.value.DoubleValue
0.685

@<SCITEGIC>MOL_PROPERTY
U+W
SciTegic.value.DoubleValue
-15.179

@<SCITEGIC>MOL_PROPERTY
Grad RMS
SciTegic.value.DoubleValue
0.000000

@<SCITEGIC>MOL_PROPERTY
U
SciTegic.value.DoubleValue
45.697

@<SCITEGIC>MOL_PROPERTY
W
SciTegic.value.DoubleValue
-60.876

@<SCITEGIC>MOL_PROPERTY
W(PB)
SciTegic.value.DoubleValue
-62.586

@<SCITEGIC>MOL_PROPERTY
W(SA)
SciTegic.value.DoubleValue
1.710

@<SCITEGIC>MOL_PROPERTY
Valence
SciTegic.value.DoubleValue
1.263

@<SCITEGIC>MOL_PROPERTY
Coulomb
SciTegic.value.DoubleValue
44.179

@<SCITEGIC>MOL_PROPERTY
VdW
SciTegic.value.DoubleValue
0.255

@<SCITEGIC>MOL_PROPERTY
VdW6
SciTegic.value.DoubleValue
-3.552

@<SCITEGIC>MOL_PROPERTY
VdW12
SciTegic.value.DoubleValue
3.807

@<SCITEGIC>MOL_PROPERTY
Bond
SciTegic.value.DoubleValue
0.125

@<SCITEGIC>MOL_PROPERTY
Angle
SciTegic.value.DoubleValue
0.616

@<SCITEGIC>MOL_PROPERTY
Pdih
SciTegic.value.DoubleValue
0.521

@<SCITEGIC>MOL_PROPERTY
Idih
SciTegic.value.DoubleValue
0.000

@<SCITEGIC>MOL_PROPERTY
Tether
SciTegic.value.DoubleValue
0.000

@<TRIPOS>MOLECULE
guest-1_confgen4.mol2 : confsearch ligand conformer 438
          17          16           1
SMALL
USER_CHARGES
 
@<TRIPOS>ATOM
       1    N1      18.633914   17.669546   20.946345 N.4        1 MOL1        -0.5891
       2    H1      19.107250   16.805030   20.667163 H          1 MOL1         0.3726
       3    H2      18.767337   18.345805   20.189165 H          1 MOL1         0.3726
       4    H3      17.631358   17.460077   20.987226 H          1 MOL1         0.3726
       5    C1      19.154181   18.197577   22.269358 C.3        1 MOL1         0.0314
       6    H4      18.945689   17.444069   23.033749 H          1 MOL1         0.0999
       7    H5      18.589383   19.099010   22.520809 H          1 MOL1         0.0999
       8    C2      20.663969   18.514470   22.263002 C.3        1 MOL1        -0.1308
       9    H6      20.961588   18.826627   23.272845 H          1 MOL1         0.1025
      10    H7      21.224405   17.594558   22.049879 H          1 MOL1         0.1025
      11    C3      21.073062   19.612102   21.249392 C.3        1 MOL1        -0.1243
      12    H8      20.865560   19.275828   20.224445 H          1 MOL1         0.1025
      13    H9      22.160871   19.758263   21.306064 H          1 MOL1         0.1025
      14    C4      20.370587   20.965115   21.505681 C.3        1 MOL1        -0.2258
      15    H10     20.738206   21.728163   20.807410 H          1 MOL1         0.1036
      16    H11     20.564173   21.323369   22.525115 H          1 MOL1         0.1036
      17    H12     19.284455   20.888430   21.370093 H          1 MOL1         0.1036
@<TRIPOS>BOND
    1     1     2    1
    2     1     3    1
    3     1     4    1
    4     1     5    1
    5     5     6    1
    6     5     7    1
    7     5     8    1
    8     8     9    1
    9     8    10    1
   10     8    11    1
   11    11    12    1
   12    11    13    1
   13    11    14    1
   14    14    15    1
   15    14    16    1
   16    14    17    1
@<TRIPOS>SUBSTRUCTURE
       1 MOL1            1 RESIDUE      1      MOL     
@<SCITEGIC>MOL_PROPERTY
VConf Rank
SciTegic.value.IntegerValue
438

@<SCITEGIC>MOL_PROPERTY
Conf_Id
SciTegic.value.IntegerValue
43

@<SCITEGIC>MOL_PROPERTY
Delta U+W
SciTegic.value.DoubleValue
0.642

@<SCITEGIC>MOL_PROPERTY
U+W
SciTegic.value.DoubleValue
-15.222

@<SCITEGIC>MOL_PROPERTY
Grad RMS
SciTegic.value.DoubleValue
0.000000

@<SCITEGIC>MOL_PROPERTY
U
SciTegic.value.DoubleValue
45.697

@<SCITEGIC>MOL_PROPERTY
W
SciTegic.value.DoubleValue
-60.919

@<SCITEGIC>MOL_PROPERTY
W(PB)
SciTegic.value.DoubleValue
-62.631

@<SCITEGIC>MOL_PROPERTY
W(SA)
SciTegic.value.DoubleValue
1.712

@<SCITEGIC>MOL_PROPERTY
Valence
SciTegic.value.DoubleValue
1.262

@<SCITEGIC>MOL_PROPERTY
Coulomb
SciTegic.value.DoubleValue
44.179

@<SCITEGIC>MOL_PROPERTY
VdW
SciTegic.value.DoubleValue
0.255

@<SCITEGIC>MOL_PROPERTY
VdW6
SciTegic.value.DoubleValue
-3.552

@<SCITEGIC>MOL_PROPERTY
VdW12
SciTegic.value.DoubleValue
3.807

@<SCITEGIC>MOL_PROPERTY
Bond
SciTegic.value.DoubleValue
0.125

@<SCITEGIC>MOL_PROPERTY
Angle
SciTegic.value.DoubleValue
0.616

@<SCITEGIC>MOL_PROPERTY
Pdih
SciTegic.value.DoubleValue
0.521

@<SCITEGIC>MOL_PROPERTY
Idih
SciTegic.value.DoubleValue
0.000

@<SCITEGIC>MOL_PROPERTY
Tether
SciTegic.value.DoubleValue
0.000

@<TRIPOS>MOLECULE
guest-1_confgen4.mol2 : confsearch ligand conformer 439
          17          16           1
SMALL
USER_CHARGES
 
@<TRIPOS>ATOM
       1    N1      20.331293   21.227828   22.926234 N.4        1 MOL1        -0.5891
       2    H1      21.288302   21.030948   23.234565 H          1 MOL1         0.3726
       3    H2      19.711454   21.011617   23.712841 H          1 MOL1         0.3726
       4    H3      20.272055   22.239537   22.771816 H          1 MOL1         0.3726
       5    C1      19.963323   20.445256   21.681431 C.3        1 MOL1         0.0314
       6    H4      20.642337   20.747666   20.879551 H          1 MOL1         0.0999
       7    H5      18.946724   20.726913   21.393822 H          1 MOL1         0.0999
       8    C2      20.041666   18.920329   21.878205 C.3        1 MOL1        -0.1308
       9    H6      21.059912   18.643016   22.181954 H          1 MOL1         0.1025
      10    H7      19.370031   18.622318   22.694346 H          1 MOL1         0.1025
      11    C3      19.659773   18.161890   20.588069 C.3        1 MOL1        -0.1243
      12    H8      20.329632   18.462260   19.769905 H          1 MOL1         0.1025
      13    H9      18.641797   18.441523   20.281709 H          1 MOL1         0.1025
      14    C4      19.736134   16.631499   20.777870 C.3        1 MOL1        -0.2258
      15    H10     19.461481   16.111530   19.850914 H          1 MOL1         0.1036
      16    H11     19.050671   16.296300   21.567166 H          1 MOL1         0.1036
      17    H12     20.751823   16.317216   21.051383 H          1 MOL1         0.1036
@<TRIPOS>BOND
    1     1     2    1
    2     1     3    1
    3     1     4    1
    4     1     5    1
    5     5     6    1
    6     5     7    1
    7     5     8    1
    8     8     9    1
    9     8    10    1
   10     8    11    1
   11    11    12    1
   12    11    13    1
   13    11    14    1
   14    14    15    1
   15    14    16    1
   16    14    17    1
@<TRIPOS>SUBSTRUCTURE
       1 MOL1            1 RESIDUE      1      MOL     
@<SCITEGIC>MOL_PROPERTY
VConf Rank
SciTegic.value.IntegerValue
439

@<SCITEGIC>MOL_PROPERTY
Conf_Id
SciTegic.value.IntegerValue
7

@<SCITEGIC>MOL_PROPERTY
Delta U+W
SciTegic.value.DoubleValue
0.000

@<SCITEGIC>MOL_PROPERTY
U+W
SciTegic.value.DoubleValue
-15.865

@<SCITEGIC>MOL_PROPERTY
Grad RMS
SciTegic.value.DoubleValue
0.000000

@<SCITEGIC>MOL_PROPERTY
U
SciTegic.value.DoubleValue
44.664

@<SCITEGIC>MOL_PROPERTY
W
SciTegic.value.DoubleValue
-60.529

@<SCITEGIC>MOL_PROPERTY
W(PB)
SciTegic.value.DoubleValue
-62.309

@<SCITEGIC>MOL_PROPERTY
W(SA)
SciTegic.value.DoubleValue
1.780

@<SCITEGIC>MOL_PROPERTY
Valence
SciTegic.value.DoubleValue
0.872

@<SCITEGIC>MOL_PROPERTY
Coulomb
SciTegic.value.DoubleValue
43.648

@<SCITEGIC>MOL_PROPERTY
VdW
SciTegic.value.DoubleValue
0.144

@<SCITEGIC>MOL_PROPERTY
VdW6
SciTegic.value.DoubleValue
-2.370

@<SCITEGIC>MOL_PROPERTY
VdW12
SciTegic.value.DoubleValue
2.515

@<SCITEGIC>MOL_PROPERTY
Bond
SciTegic.value.DoubleValue
0.080

@<SCITEGIC>MOL_PROPERTY
Angle
SciTegic.value.DoubleValue
0.376

@<SCITEGIC>MOL_PROPERTY
Pdih
SciTegic.value.DoubleValue
0.416

@<SCITEGIC>MOL_PROPERTY
Idih
SciTegic.value.DoubleValue
0.000

@<SCITEGIC>MOL_PROPERTY
Tether
SciTegic.value.DoubleValue
0.000

@<TRIPOS>MOLECULE
guest-1_confgen4.mol2 : confsearch ligand conformer 440
          17          16           1
SMALL
USER_CHARGES
 
@<TRIPOS>ATOM
       1    N1      19.411695   17.445391   19.936340 N.4        1 MOL1        -0.5891
       2    H1      18.425573   17.182392   20.026014 H          1 MOL1         0.3726
       3    H2      19.964863   16.674124   20.322085 H          1 MOL1         0.3726
       4    H3      19.617641   17.484970   18.932914 H          1 MOL1         0.3726
       5    C1      19.713526   18.760873   20.626096 C.3        1 MOL1         0.0314
       6    H4      19.114166   19.539331   20.146325 H          1 MOL1         0.0999
       7    H5      20.769438   18.991335   20.462469 H          1 MOL1         0.0999
       8    C2      19.415144   18.735942   22.137488 C.3        1 MOL1        -0.1308
       9    H6      18.362400   18.464386   22.291967 H          1 MOL1         0.1025
      10    H7      20.015890   17.952955   22.619074 H          1 MOL1         0.1025
      11    C3      19.689916   20.095229   22.822208 C.3        1 MOL1        -0.1243
      12    H8      19.382185   20.032989   23.875493 H          1 MOL1         0.1025
      13    H9      19.064636   20.874123   22.363372 H          1 MOL1         0.1025
      14    C4      21.175969   20.516086   22.755231 C.3        1 MOL1        -0.2258
      15    H10     21.823828   19.750958   23.202425 H          1 MOL1         0.1036
      16    H11     21.335859   21.452826   23.304740 H          1 MOL1         0.1036
      17    H12     21.502652   20.679862   21.720559 H          1 MOL1         0.1036
@<TRIPOS>BOND
    1     1     2    1
    2     1     3    1
    3     1     4    1
    4     1     5    1
    5     5     6    1
    6     5     7    1
    7     5     8    1
    8     8     9    1
    9     8    10    1
   10     8    11    1
   11    11    12    1
   12    11    13    1
   13    11    14    1
   14    14    15    1
   15    14    16    1
   16    14    17    1
@<TRIPOS>SUBSTRUCTURE
       1 MOL1            1 RESIDUE      1      MOL     
@<SCITEGIC>MOL_PROPERTY
VConf Rank
SciTegic.value.IntegerValue
440

@<SCITEGIC>MOL_PROPERTY
Conf_Id
SciTegic.value.IntegerValue
36

@<SCITEGIC>MOL_PROPERTY
Delta U+W
SciTegic.value.DoubleValue
0.275

@<SCITEGIC>MOL_PROPERTY
U+W
SciTegic.value.DoubleValue
-15.590

@<SCITEGIC>MOL_PROPERTY
Grad RMS
SciTegic.value.DoubleValue
0.000000

@<SCITEGIC>MOL_PROPERTY
U
SciTegic.value.DoubleValue
45.174

@<SCITEGIC>MOL_PROPERTY
W
SciTegic.value.DoubleValue
-60.765

@<SCITEGIC>MOL_PROPERTY
W(PB)
SciTegic.value.DoubleValue
-62.518

@<SCITEGIC>MOL_PROPERTY
W(SA)
SciTegic.value.DoubleValue
1.754

@<SCITEGIC>MOL_PROPERTY
Valence
SciTegic.value.DoubleValue
1.161

@<SCITEGIC>MOL_PROPERTY
Coulomb
SciTegic.value.DoubleValue
43.789

@<SCITEGIC>MOL_PROPERTY
VdW
SciTegic.value.DoubleValue
0.224

@<SCITEGIC>MOL_PROPERTY
VdW6
SciTegic.value.DoubleValue
-2.897

@<SCITEGIC>MOL_PROPERTY
VdW12
SciTegic.value.DoubleValue
3.121

@<SCITEGIC>MOL_PROPERTY
Bond
SciTegic.value.DoubleValue
0.100

@<SCITEGIC>MOL_PROPERTY
Angle
SciTegic.value.DoubleValue
0.500

@<SCITEGIC>MOL_PROPERTY
Pdih
SciTegic.value.DoubleValue
0.561

@<SCITEGIC>MOL_PROPERTY
Idih
SciTegic.value.DoubleValue
0.000

@<SCITEGIC>MOL_PROPERTY
Tether
SciTegic.value.DoubleValue
0.000

@<TRIPOS>MOLECULE
guest-1_confgen4.mol2 : confsearch ligand conformer 441
          17          16           1
SMALL
USER_CHARGES
 
@<TRIPOS>ATOM
       1    N1      19.931290   19.071630   19.744630 N.4        1 MOL1        -0.5891
       2    H1      20.853309   18.807493   20.100942 H          1 MOL1         0.3726
       3    H2      19.974181   20.067052   19.506354 H          1 MOL1         0.3726
       4    H3      19.788758   18.561748   18.866833 H          1 MOL1         0.3726
       5    C1      18.834871   18.779831   20.750984 C.3        1 MOL1         0.0314
       6    H4      18.790992   17.699735   20.914596 H          1 MOL1         0.0999
       7    H5      17.891108   19.091019   20.294902 H          1 MOL1         0.0999
       8    C2      19.003990   19.506326   22.101990 C.3        1 MOL1        -0.1308
       9    H6      19.295436   20.551356   21.932585 H          1 MOL1         0.1025
      10    H7      18.019926   19.543124   22.587902 H          1 MOL1         0.1025
      11    C3      19.993134   18.822509   23.080097 C.3        1 MOL1        -0.1243
      12    H8      19.655561   17.798001   23.290927 H          1 MOL1         0.1025
      13    H9      19.956814   19.357749   24.039362 H          1 MOL1         0.1025
      14    C4      21.458367   18.791215   22.589184 C.3        1 MOL1        -0.2258
      15    H10     21.586852   18.097582   21.750113 H          1 MOL1         0.1036
      16    H11     22.122116   18.449593   23.394098 H          1 MOL1         0.1036
      17    H12     21.796493   19.788753   22.279761 H          1 MOL1         0.1036
@<TRIPOS>BOND
    1     1     2    1
    2     1     3    1
    3     1     4    1
    4     1     5    1
    5     5     6    1
    6     5     7    1
    7     5     8    1
    8     8     9    1
    9     8    10    1
   10     8    11    1
   11    11    12    1
   12    11    13    1
   13    11    14    1
   14    14    15    1
   15    14    16    1
   16    14    17    1
@<TRIPOS>SUBSTRUCTURE
       1 MOL1            1 RESIDUE      1      MOL     
@<SCITEGIC>MOL_PROPERTY
VConf Rank
SciTegic.value.IntegerValue
441

@<SCITEGIC>MOL_PROPERTY
Conf_Id
SciTegic.value.IntegerValue
19

@<SCITEGIC>MOL_PROPERTY
Delta U+W
SciTegic.value.DoubleValue
2.662

@<SCITEGIC>MOL_PROPERTY
U+W
SciTegic.value.DoubleValue
-13.203

@<SCITEGIC>MOL_PROPERTY
Grad RMS
SciTegic.value.DoubleValue
0.000000

@<SCITEGIC>MOL_PROPERTY
U
SciTegic.value.DoubleValue
47.423

@<SCITEGIC>MOL_PROPERTY
W
SciTegic.value.DoubleValue
-60.626

@<SCITEGIC>MOL_PROPERTY
W(PB)
SciTegic.value.DoubleValue
-62.328

@<SCITEGIC>MOL_PROPERTY
W(SA)
SciTegic.value.DoubleValue
1.702

@<SCITEGIC>MOL_PROPERTY
Valence
SciTegic.value.DoubleValue
2.414

@<SCITEGIC>MOL_PROPERTY
Coulomb
SciTegic.value.DoubleValue
44.831

@<SCITEGIC>MOL_PROPERTY
VdW
SciTegic.value.DoubleValue
0.178

@<SCITEGIC>MOL_PROPERTY
VdW6
SciTegic.value.DoubleValue
-3.743

@<SCITEGIC>MOL_PROPERTY
VdW12
SciTegic.value.DoubleValue
3.921

@<SCITEGIC>MOL_PROPERTY
Bond
SciTegic.value.DoubleValue
0.138

@<SCITEGIC>MOL_PROPERTY
Angle
SciTegic.value.DoubleValue
0.941

@<SCITEGIC>MOL_PROPERTY
Pdih
SciTegic.value.DoubleValue
1.335

@<SCITEGIC>MOL_PROPERTY
Idih
SciTegic.value.DoubleValue
0.000

@<SCITEGIC>MOL_PROPERTY
Tether
SciTegic.value.DoubleValue
0.000

@<TRIPOS>MOLECULE
guest-1_confgen4.mol2 : confsearch ligand conformer 442
          17          16           1
SMALL
USER_CHARGES
 
@<TRIPOS>ATOM
       1    N1      19.877975   17.247193   22.004201 N.4        1 MOL1        -0.5891
       2    H1      20.437448   16.430555   22.270504 H          1 MOL1         0.3726
       3    H2      18.952664   16.898733   21.736144 H          1 MOL1         0.3726
       4    H3      19.753342   17.815309   22.845958 H          1 MOL1         0.3726
       5    C1      20.529024   18.036301   20.884611 C.3        1 MOL1         0.0314
       6    H4      20.622405   17.360990   20.029759 H          1 MOL1         0.0999
       7    H5      21.535787   18.322701   21.200371 H          1 MOL1         0.0999
       8    C2      19.741077   19.290359   20.450919 C.3        1 MOL1        -0.1308
       9    H6      20.066101   19.555735   19.436137 H          1 MOL1         0.1025
      10    H7      18.671752   19.053509   20.372332 H          1 MOL1         0.1025
      11    C3      19.953709   20.528796   21.358534 C.3        1 MOL1        -0.1243
      12    H8      19.436216   21.384684   20.902852 H          1 MOL1         0.1025
      13    H9      21.020170   20.793939   21.378078 H          1 MOL1         0.1025
      14    C4      19.439306   20.356320   22.805779 C.3        1 MOL1        -0.2258
      15    H10     18.401407   19.998947   22.820006 H          1 MOL1         0.1036
      16    H11     19.467962   21.316726   23.336774 H          1 MOL1         0.1036
      17    H12     20.062868   19.656050   23.373644 H          1 MOL1         0.1036
@<TRIPOS>BOND
    1     1     2    1
    2     1     3    1
    3     1     4    1
    4     1     5    1
    5     5     6    1
    6     5     7    1
    7     5     8    1
    8     8     9    1
    9     8    10    1
   10     8    11    1
   11    11    12    1
   12    11    13    1
   13    11    14    1
   14    14    15    1
   15    14    16    1
   16    14    17    1
@<TRIPOS>SUBSTRUCTURE
       1 MOL1            1 RESIDUE      1      MOL     
@<SCITEGIC>MOL_PROPERTY
VConf Rank
SciTegic.value.IntegerValue
442

@<SCITEGIC>MOL_PROPERTY
Conf_Id
SciTegic.value.IntegerValue
44

@<SCITEGIC>MOL_PROPERTY
Delta U+W
SciTegic.value.DoubleValue
2.712

@<SCITEGIC>MOL_PROPERTY
U+W
SciTegic.value.DoubleValue
-13.153

@<SCITEGIC>MOL_PROPERTY
Grad RMS
SciTegic.value.DoubleValue
0.000000

@<SCITEGIC>MOL_PROPERTY
U
SciTegic.value.DoubleValue
47.423

@<SCITEGIC>MOL_PROPERTY
W
SciTegic.value.DoubleValue
-60.576

@<SCITEGIC>MOL_PROPERTY
W(PB)
SciTegic.value.DoubleValue
-62.262

@<SCITEGIC>MOL_PROPERTY
W(SA)
SciTegic.value.DoubleValue
1.687

@<SCITEGIC>MOL_PROPERTY
Valence
SciTegic.value.DoubleValue
2.414

@<SCITEGIC>MOL_PROPERTY
Coulomb
SciTegic.value.DoubleValue
44.831

@<SCITEGIC>MOL_PROPERTY
VdW
SciTegic.value.DoubleValue
0.178

@<SCITEGIC>MOL_PROPERTY
VdW6
SciTegic.value.DoubleValue
-3.743

@<SCITEGIC>MOL_PROPERTY
VdW12
SciTegic.value.DoubleValue
3.922

@<SCITEGIC>MOL_PROPERTY
Bond
SciTegic.value.DoubleValue
0.138

@<SCITEGIC>MOL_PROPERTY
Angle
SciTegic.value.DoubleValue
0.941

@<SCITEGIC>MOL_PROPERTY
Pdih
SciTegic.value.DoubleValue
1.335

@<SCITEGIC>MOL_PROPERTY
Idih
SciTegic.value.DoubleValue
0.000

@<SCITEGIC>MOL_PROPERTY
Tether
SciTegic.value.DoubleValue
0.000

@<TRIPOS>MOLECULE
guest-1_confgen4.mol2 : confsearch ligand conformer 443
          17          16           1
SMALL
USER_CHARGES
 
@<TRIPOS>ATOM
       1    N1      18.869804   18.075378   20.214432 N.4        1 MOL1        -0.5891
       2    H1      18.494798   17.795278   21.125125 H          1 MOL1         0.3726
       3    H2      19.387078   17.274143   19.840497 H          1 MOL1         0.3726
       4    H3      18.067771   18.227398   19.594511 H          1 MOL1         0.3726
       5    C1      19.741773   19.311484   20.321999 C.3        1 MOL1         0.0314
       6    H4      19.123728   20.131301   20.697132 H          1 MOL1         0.0999
       7    H5      20.074348   19.573110   19.313791 H          1 MOL1         0.0999
       8    C2      20.972300   19.128094   21.234189 C.3        1 MOL1        -0.1308
       9    H6      21.607283   18.330276   20.826718 H          1 MOL1         0.1025
      10    H7      21.574674   20.045583   21.200056 H          1 MOL1         0.1025
      11    C3      20.621467   18.803769   22.707717 C.3        1 MOL1        -0.1243
      12    H8      21.554858   18.676897   23.273924 H          1 MOL1         0.1025
      13    H9      20.097331   17.840273   22.767807 H          1 MOL1         0.1025
      14    C4      19.769748   19.902809   23.383354 C.3        1 MOL1        -0.2258
      15    H10     20.273795   20.876905   23.337081 H          1 MOL1         0.1036
      16    H11     19.601024   19.663291   24.441244 H          1 MOL1         0.1036
      17    H12     18.786863   20.002772   22.905973 H          1 MOL1         0.1036
@<TRIPOS>BOND
    1     1     2    1
    2     1     3    1
    3     1     4    1
    4     1     5    1
    5     5     6    1
    6     5     7    1
    7     5     8    1
    8     8     9    1
    9     8    10    1
   10     8    11    1
   11    11    12    1
   12    11    13    1
   13    11    14    1
   14    14    15    1
   15    14    16    1
   16    14    17    1
@<TRIPOS>SUBSTRUCTURE
       1 MOL1            1 RESIDUE      1      MOL     
@<SCITEGIC>MOL_PROPERTY
VConf Rank
SciTegic.value.IntegerValue
443

@<SCITEGIC>MOL_PROPERTY
Conf_Id
SciTegic.value.IntegerValue
1

@<SCITEGIC>MOL_PROPERTY
Delta U+W
SciTegic.value.DoubleValue
0.685

@<SCITEGIC>MOL_PROPERTY
U+W
SciTegic.value.DoubleValue
-15.179

@<SCITEGIC>MOL_PROPERTY
Grad RMS
SciTegic.value.DoubleValue
0.000000

@<SCITEGIC>MOL_PROPERTY
U
SciTegic.value.DoubleValue
45.697

@<SCITEGIC>MOL_PROPERTY
W
SciTegic.value.DoubleValue
-60.876

@<SCITEGIC>MOL_PROPERTY
W(PB)
SciTegic.value.DoubleValue
-62.586

@<SCITEGIC>MOL_PROPERTY
W(SA)
SciTegic.value.DoubleValue
1.710

@<SCITEGIC>MOL_PROPERTY
Valence
SciTegic.value.DoubleValue
1.263

@<SCITEGIC>MOL_PROPERTY
Coulomb
SciTegic.value.DoubleValue
44.179

@<SCITEGIC>MOL_PROPERTY
VdW
SciTegic.value.DoubleValue
0.255

@<SCITEGIC>MOL_PROPERTY
VdW6
SciTegic.value.DoubleValue
-3.552

@<SCITEGIC>MOL_PROPERTY
VdW12
SciTegic.value.DoubleValue
3.807

@<SCITEGIC>MOL_PROPERTY
Bond
SciTegic.value.DoubleValue
0.125

@<SCITEGIC>MOL_PROPERTY
Angle
SciTegic.value.DoubleValue
0.616

@<SCITEGIC>MOL_PROPERTY
Pdih
SciTegic.value.DoubleValue
0.521

@<SCITEGIC>MOL_PROPERTY
Idih
SciTegic.value.DoubleValue
0.000

@<SCITEGIC>MOL_PROPERTY
Tether
SciTegic.value.DoubleValue
0.000

@<TRIPOS>MOLECULE
guest-1_confgen4.mol2 : confsearch ligand conformer 444
          17          16           1
SMALL
USER_CHARGES
 
@<TRIPOS>ATOM
       1    N1      20.598414   19.712159   19.859365 N.4        1 MOL1        -0.5891
       2    H1      19.839386   19.824558   19.180675 H          1 MOL1         0.3726
       3    H2      20.823880   18.714133   19.898826 H          1 MOL1         0.3726
       4    H3      21.418280   20.188986   19.470619 H          1 MOL1         0.3726
       5    C1      20.222905   20.257664   21.223651 C.3        1 MOL1         0.0314
       6    H4      20.033174   21.328809   21.113257 H          1 MOL1         0.0999
       7    H5      21.082593   20.133583   21.887236 H          1 MOL1         0.0999
       8    C2      18.983810   19.580936   21.845426 C.3        1 MOL1        -0.1308
       9    H6      18.750141   20.080531   22.794956 H          1 MOL1         0.1025
      10    H7      18.117006   19.745988   21.191853 H          1 MOL1         0.1025
      11    C3      19.155499   18.062257   22.097807 C.3        1 MOL1        -0.1243
      12    H8      19.298879   17.534966   21.144885 H          1 MOL1         0.1025
      13    H9      18.223420   17.667136   22.525607 H          1 MOL1         0.1025
      14    C4      20.325075   17.735861   23.054548 C.3        1 MOL1        -0.2258
      15    H10     20.368341   16.657652   23.255946 H          1 MOL1         0.1036
      16    H11     20.203848   18.251285   24.016166 H          1 MOL1         0.1036
      17    H12     21.291334   18.031538   22.626918 H          1 MOL1         0.1036
@<TRIPOS>BOND
    1     1     2    1
    2     1     3    1
    3     1     4    1
    4     1     5    1
    5     5     6    1
    6     5     7    1
    7     5     8    1
    8     8     9    1
    9     8    10    1
   10     8    11    1
   11    11    12    1
   12    11    13    1
   13    11    14    1
   14    14    15    1
   15    14    16    1
   16    14    17    1
@<TRIPOS>SUBSTRUCTURE
       1 MOL1            1 RESIDUE      1      MOL     
@<SCITEGIC>MOL_PROPERTY
VConf Rank
SciTegic.value.IntegerValue
444

@<SCITEGIC>MOL_PROPERTY
Conf_Id
SciTegic.value.IntegerValue
43

@<SCITEGIC>MOL_PROPERTY
Delta U+W
SciTegic.value.DoubleValue
0.642

@<SCITEGIC>MOL_PROPERTY
U+W
SciTegic.value.DoubleValue
-15.222

@<SCITEGIC>MOL_PROPERTY
Grad RMS
SciTegic.value.DoubleValue
0.000000

@<SCITEGIC>MOL_PROPERTY
U
SciTegic.value.DoubleValue
45.697

@<SCITEGIC>MOL_PROPERTY
W
SciTegic.value.DoubleValue
-60.919

@<SCITEGIC>MOL_PROPERTY
W(PB)
SciTegic.value.DoubleValue
-62.631

@<SCITEGIC>MOL_PROPERTY
W(SA)
SciTegic.value.DoubleValue
1.712

@<SCITEGIC>MOL_PROPERTY
Valence
SciTegic.value.DoubleValue
1.262

@<SCITEGIC>MOL_PROPERTY
Coulomb
SciTegic.value.DoubleValue
44.179

@<SCITEGIC>MOL_PROPERTY
VdW
SciTegic.value.DoubleValue
0.255

@<SCITEGIC>MOL_PROPERTY
VdW6
SciTegic.value.DoubleValue
-3.552

@<SCITEGIC>MOL_PROPERTY
VdW12
SciTegic.value.DoubleValue
3.807

@<SCITEGIC>MOL_PROPERTY
Bond
SciTegic.value.DoubleValue
0.125

@<SCITEGIC>MOL_PROPERTY
Angle
SciTegic.value.DoubleValue
0.616

@<SCITEGIC>MOL_PROPERTY
Pdih
SciTegic.value.DoubleValue
0.521

@<SCITEGIC>MOL_PROPERTY
Idih
SciTegic.value.DoubleValue
0.000

@<SCITEGIC>MOL_PROPERTY
Tether
SciTegic.value.DoubleValue
0.000

@<TRIPOS>MOLECULE
guest-1_confgen4.mol2 : confsearch ligand conformer 445
          17          16           1
SMALL
USER_CHARGES
 
@<TRIPOS>ATOM
       1    N1      18.345430   18.113425   19.843252 N.4        1 MOL1        -0.5891
       2    H1      18.439664   18.868234   19.156900 H          1 MOL1         0.3726
       3    H2      17.474826   18.280891   20.356770 H          1 MOL1         0.3726
       4    H3      18.214502   17.245754   19.313239 H          1 MOL1         0.3726
       5    C1      19.543815   18.033638   20.767840 C.3        1 MOL1         0.0314
       6    H4      20.427004   17.823680   20.158399 H          1 MOL1         0.0999
       7    H5      19.389512   17.192063   21.448624 H          1 MOL1         0.0999
       8    C2      19.770080   19.321640   21.580316 C.3        1 MOL1        -0.1308
       9    H6      19.909222   20.167132   20.893458 H          1 MOL1         0.1025
      10    H7      18.875370   19.537606   22.179350 H          1 MOL1         0.1025
      11    C3      20.998877   19.198291   22.507874 C.3        1 MOL1        -0.1243
      12    H8      21.894235   18.978817   21.909133 H          1 MOL1         0.1025
      13    H9      20.861621   18.350115   23.193501 H          1 MOL1         0.1025
      14    C4      21.232152   20.486716   23.326104 C.3        1 MOL1        -0.2258
      15    H10     22.108754   20.378797   23.978002 H          1 MOL1         0.1036
      16    H11     20.366319   20.713586   23.961770 H          1 MOL1         0.1036
      17    H12     21.407024   21.347262   22.667251 H          1 MOL1         0.1036
@<TRIPOS>BOND
    1     1     2    1
    2     1     3    1
    3     1     4    1
    4     1     5    1
    5     5     6    1
    6     5     7    1
    7     5     8    1
    8     8     9    1
    9     8    10    1
   10     8    11    1
   11    11    12    1
   12    11    13    1
   13    11    14    1
   14    14    15    1
   15    14    16    1
   16    14    17    1
@<TRIPOS>SUBSTRUCTURE
       1 MOL1            1 RESIDUE      1      MOL     
@<SCITEGIC>MOL_PROPERTY
VConf Rank
SciTegic.value.IntegerValue
445

@<SCITEGIC>MOL_PROPERTY
Conf_Id
SciTegic.value.IntegerValue
7

@<SCITEGIC>MOL_PROPERTY
Delta U+W
SciTegic.value.DoubleValue
0.000

@<SCITEGIC>MOL_PROPERTY
U+W
SciTegic.value.DoubleValue
-15.865

@<SCITEGIC>MOL_PROPERTY
Grad RMS
SciTegic.value.DoubleValue
0.000000

@<SCITEGIC>MOL_PROPERTY
U
SciTegic.value.DoubleValue
44.664

@<SCITEGIC>MOL_PROPERTY
W
SciTegic.value.DoubleValue
-60.529

@<SCITEGIC>MOL_PROPERTY
W(PB)
SciTegic.value.DoubleValue
-62.309

@<SCITEGIC>MOL_PROPERTY
W(SA)
SciTegic.value.DoubleValue
1.780

@<SCITEGIC>MOL_PROPERTY
Valence
SciTegic.value.DoubleValue
0.872

@<SCITEGIC>MOL_PROPERTY
Coulomb
SciTegic.value.DoubleValue
43.648

@<SCITEGIC>MOL_PROPERTY
VdW
SciTegic.value.DoubleValue
0.144

@<SCITEGIC>MOL_PROPERTY
VdW6
SciTegic.value.DoubleValue
-2.370

@<SCITEGIC>MOL_PROPERTY
VdW12
SciTegic.value.DoubleValue
2.515

@<SCITEGIC>MOL_PROPERTY
Bond
SciTegic.value.DoubleValue
0.080

@<SCITEGIC>MOL_PROPERTY
Angle
SciTegic.value.DoubleValue
0.376

@<SCITEGIC>MOL_PROPERTY
Pdih
SciTegic.value.DoubleValue
0.416

@<SCITEGIC>MOL_PROPERTY
Idih
SciTegic.value.DoubleValue
0.000

@<SCITEGIC>MOL_PROPERTY
Tether
SciTegic.value.DoubleValue
0.000

@<TRIPOS>MOLECULE
guest-1_confgen4.mol2 : confsearch ligand conformer 446
          17          16           1
SMALL
USER_CHARGES
 
@<TRIPOS>ATOM
       1    N1      17.961484   20.351411   21.001813 N.4        1 MOL1        -0.5891
       2    H1      18.032683   21.291790   21.402145 H          1 MOL1         0.3726
       3    H2      17.281871   19.834314   21.567837 H          1 MOL1         0.3726
       4    H3      17.550662   20.457082   20.068591 H          1 MOL1         0.3726
       5    C1      19.305675   19.652952   20.950231 C.3        1 MOL1         0.0314
       6    H4      19.967653   20.240952   20.308788 H          1 MOL1         0.0999
       7    H5      19.158141   18.674562   20.485660 H          1 MOL1         0.0999
       8    C2      19.951795   19.477275   22.337900 C.3        1 MOL1        -0.1308
       9    H6      20.058733   20.461872   22.812253 H          1 MOL1         0.1025
      10    H7      19.286159   18.888124   22.982662 H          1 MOL1         0.1025
      11    C3      21.339956   18.798953   22.267942 C.3        1 MOL1        -0.1243
      12    H8      21.777845   18.777290   23.275794 H          1 MOL1         0.1025
      13    H9      22.017492   19.404873   21.649890 H          1 MOL1         0.1025
      14    C4      21.280728   17.357272   21.712958 C.3        1 MOL1        -0.2258
      15    H10     20.604657   16.731532   22.310036 H          1 MOL1         0.1036
      16    H11     22.275526   16.893875   21.738392 H          1 MOL1         0.1036
      17    H12     20.934323   17.339645   20.671909 H          1 MOL1         0.1036
@<TRIPOS>BOND
    1     1     2    1
    2     1     3    1
    3     1     4    1
    4     1     5    1
    5     5     6    1
    6     5     7    1
    7     5     8    1
    8     8     9    1
    9     8    10    1
   10     8    11    1
   11    11    12    1
   12    11    13    1
   13    11    14    1
   14    14    15    1
   15    14    16    1
   16    14    17    1
@<TRIPOS>SUBSTRUCTURE
       1 MOL1            1 RESIDUE      1      MOL     
@<SCITEGIC>MOL_PROPERTY
VConf Rank
SciTegic.value.IntegerValue
446

@<SCITEGIC>MOL_PROPERTY
Conf_Id
SciTegic.value.IntegerValue
36

@<SCITEGIC>MOL_PROPERTY
Delta U+W
SciTegic.value.DoubleValue
0.275

@<SCITEGIC>MOL_PROPERTY
U+W
SciTegic.value.DoubleValue
-15.590

@<SCITEGIC>MOL_PROPERTY
Grad RMS
SciTegic.value.DoubleValue
0.000000

@<SCITEGIC>MOL_PROPERTY
U
SciTegic.value.DoubleValue
45.174

@<SCITEGIC>MOL_PROPERTY
W
SciTegic.value.DoubleValue
-60.765

@<SCITEGIC>MOL_PROPERTY
W(PB)
SciTegic.value.DoubleValue
-62.518

@<SCITEGIC>MOL_PROPERTY
W(SA)
SciTegic.value.DoubleValue
1.754

@<SCITEGIC>MOL_PROPERTY
Valence
SciTegic.value.DoubleValue
1.161

@<SCITEGIC>MOL_PROPERTY
Coulomb
SciTegic.value.DoubleValue
43.789

@<SCITEGIC>MOL_PROPERTY
VdW
SciTegic.value.DoubleValue
0.224

@<SCITEGIC>MOL_PROPERTY
VdW6
SciTegic.value.DoubleValue
-2.897

@<SCITEGIC>MOL_PROPERTY
VdW12
SciTegic.value.DoubleValue
3.121

@<SCITEGIC>MOL_PROPERTY
Bond
SciTegic.value.DoubleValue
0.100

@<SCITEGIC>MOL_PROPERTY
Angle
SciTegic.value.DoubleValue
0.500

@<SCITEGIC>MOL_PROPERTY
Pdih
SciTegic.value.DoubleValue
0.561

@<SCITEGIC>MOL_PROPERTY
Idih
SciTegic.value.DoubleValue
0.000

@<SCITEGIC>MOL_PROPERTY
Tether
SciTegic.value.DoubleValue
0.000

@<TRIPOS>MOLECULE
guest-1_confgen4.mol2 : confsearch ligand conformer 447
          17          16           1
SMALL
USER_CHARGES
 
@<TRIPOS>ATOM
       1    N1      21.090875   20.294381   22.248449 N.4        1 MOL1        -0.5891
       2    H1      21.491307   19.813818   21.438783 H          1 MOL1         0.3726
       3    H2      21.530752   19.895737   23.083356 H          1 MOL1         0.3726
       4    H3      21.387073   21.274327   22.195575 H          1 MOL1         0.3726
       5    C1      19.580564   20.162977   22.289996 C.3        1 MOL1         0.0314
       6    H4      19.163311   20.663547   21.412140 H          1 MOL1         0.0999
       7    H5      19.237316   20.698602   23.179279 H          1 MOL1         0.0999
       8    C2      19.071855   18.707315   22.352265 C.3        1 MOL1        -0.1308
       9    H6      19.668123   18.131556   23.072471 H          1 MOL1         0.1025
      10    H7      18.050192   18.726542   22.754360 H          1 MOL1         0.1025
      11    C3      19.031577   17.981406   20.983273 C.3        1 MOL1        -0.1243
      12    H8      18.380968   18.534018   20.290923 H          1 MOL1         0.1025
      13    H9      18.558798   16.999529   21.126053 H          1 MOL1         0.1025
      14    C4      20.416740   17.770430   20.330820 C.3        1 MOL1        -0.2258
      15    H10     20.843063   18.716303   19.976913 H          1 MOL1         0.1036
      16    H11     20.329729   17.109854   19.458339 H          1 MOL1         0.1036
      17    H12     21.120955   17.304375   21.032267 H          1 MOL1         0.1036
@<TRIPOS>BOND
    1     1     2    1
    2     1     3    1
    3     1     4    1
    4     1     5    1
    5     5     6    1
    6     5     7    1
    7     5     8    1
    8     8     9    1
    9     8    10    1
   10     8    11    1
   11    11    12    1
   12    11    13    1
   13    11    14    1
   14    14    15    1
   15    14    16    1
   16    14    17    1
@<TRIPOS>SUBSTRUCTURE
       1 MOL1            1 RESIDUE      1      MOL     
@<SCITEGIC>MOL_PROPERTY
VConf Rank
SciTegic.value.IntegerValue
447

@<SCITEGIC>MOL_PROPERTY
Conf_Id
SciTegic.value.IntegerValue
19

@<SCITEGIC>MOL_PROPERTY
Delta U+W
SciTegic.value.DoubleValue
2.662

@<SCITEGIC>MOL_PROPERTY
U+W
SciTegic.value.DoubleValue
-13.203

@<SCITEGIC>MOL_PROPERTY
Grad RMS
SciTegic.value.DoubleValue
0.000000

@<SCITEGIC>MOL_PROPERTY
U
SciTegic.value.DoubleValue
47.423

@<SCITEGIC>MOL_PROPERTY
W
SciTegic.value.DoubleValue
-60.626

@<SCITEGIC>MOL_PROPERTY
W(PB)
SciTegic.value.DoubleValue
-62.328

@<SCITEGIC>MOL_PROPERTY
W(SA)
SciTegic.value.DoubleValue
1.702

@<SCITEGIC>MOL_PROPERTY
Valence
SciTegic.value.DoubleValue
2.414

@<SCITEGIC>MOL_PROPERTY
Coulomb
SciTegic.value.DoubleValue
44.831

@<SCITEGIC>MOL_PROPERTY
VdW
SciTegic.value.DoubleValue
0.178

@<SCITEGIC>MOL_PROPERTY
VdW6
SciTegic.value.DoubleValue
-3.743

@<SCITEGIC>MOL_PROPERTY
VdW12
SciTegic.value.DoubleValue
3.921

@<SCITEGIC>MOL_PROPERTY
Bond
SciTegic.value.DoubleValue
0.138

@<SCITEGIC>MOL_PROPERTY
Angle
SciTegic.value.DoubleValue
0.941

@<SCITEGIC>MOL_PROPERTY
Pdih
SciTegic.value.DoubleValue
1.335

@<SCITEGIC>MOL_PROPERTY
Idih
SciTegic.value.DoubleValue
0.000

@<SCITEGIC>MOL_PROPERTY
Tether
SciTegic.value.DoubleValue
0.000

@<TRIPOS>MOLECULE
guest-1_confgen4.mol2 : confsearch ligand conformer 448
          17          16           1
SMALL
USER_CHARGES
 
@<TRIPOS>ATOM
       1    N1      18.201601   18.335318   21.930194 N.4        1 MOL1        -0.5891
       2    H1      17.193645   18.399620   21.754937 H          1 MOL1         0.3726
       3    H2      18.327972   17.665828   22.695239 H          1 MOL1         0.3726
       4    H3      18.627388   17.923084   21.096161 H          1 MOL1         0.3726
       5    C1      18.804391   19.687484   22.259330 C.3        1 MOL1         0.0314
       6    H4      18.298517   20.053154   23.157057 H          1 MOL1         0.0999
       7    H5      18.580480   20.376949   21.440916 H          1 MOL1         0.0999
       8    C2      20.325826   19.658267   22.516226 C.3        1 MOL1        -0.1308
       9    H6      20.584448   20.552958   23.098024 H          1 MOL1         0.1025
      10    H7      20.582958   18.800826   23.152155 H          1 MOL1         0.1025
      11    C3      21.194521   19.657108   21.232454 C.3        1 MOL1        -0.1243
      12    H8      22.249548   19.742344   21.528500 H          1 MOL1         0.1025
      13    H9      20.973162   20.553105   20.635620 H          1 MOL1         0.1025
      14    C4      21.030836   18.397933   20.351225 C.3        1 MOL1        -0.2258
      15    H10     21.152527   17.480051   20.941002 H          1 MOL1         0.1036
      16    H11     21.789942   18.387162   19.558258 H          1 MOL1         0.1036
      17    H12     20.051450   18.375656   19.859304 H          1 MOL1         0.1036
@<TRIPOS>BOND
    1     1     2    1
    2     1     3    1
    3     1     4    1
    4     1     5    1
    5     5     6    1
    6     5     7    1
    7     5     8    1
    8     8     9    1
    9     8    10    1
   10     8    11    1
   11    11    12    1
   12    11    13    1
   13    11    14    1
   14    14    15    1
   15    14    16    1
   16    14    17    1
@<TRIPOS>SUBSTRUCTURE
       1 MOL1            1 RESIDUE      1      MOL     
@<SCITEGIC>MOL_PROPERTY
VConf Rank
SciTegic.value.IntegerValue
448

@<SCITEGIC>MOL_PROPERTY
Conf_Id
SciTegic.value.IntegerValue
44

@<SCITEGIC>MOL_PROPERTY
Delta U+W
SciTegic.value.DoubleValue
2.712

@<SCITEGIC>MOL_PROPERTY
U+W
SciTegic.value.DoubleValue
-13.153

@<SCITEGIC>MOL_PROPERTY
Grad RMS
SciTegic.value.DoubleValue
0.000000

@<SCITEGIC>MOL_PROPERTY
U
SciTegic.value.DoubleValue
47.423

@<SCITEGIC>MOL_PROPERTY
W
SciTegic.value.DoubleValue
-60.576

@<SCITEGIC>MOL_PROPERTY
W(PB)
SciTegic.value.DoubleValue
-62.262

@<SCITEGIC>MOL_PROPERTY
W(SA)
SciTegic.value.DoubleValue
1.687

@<SCITEGIC>MOL_PROPERTY
Valence
SciTegic.value.DoubleValue
2.414

@<SCITEGIC>MOL_PROPERTY
Coulomb
SciTegic.value.DoubleValue
44.831

@<SCITEGIC>MOL_PROPERTY
VdW
SciTegic.value.DoubleValue
0.178

@<SCITEGIC>MOL_PROPERTY
VdW6
SciTegic.value.DoubleValue
-3.743

@<SCITEGIC>MOL_PROPERTY
VdW12
SciTegic.value.DoubleValue
3.922

@<SCITEGIC>MOL_PROPERTY
Bond
SciTegic.value.DoubleValue
0.138

@<SCITEGIC>MOL_PROPERTY
Angle
SciTegic.value.DoubleValue
0.941

@<SCITEGIC>MOL_PROPERTY
Pdih
SciTegic.value.DoubleValue
1.335

@<SCITEGIC>MOL_PROPERTY
Idih
SciTegic.value.DoubleValue
0.000

@<SCITEGIC>MOL_PROPERTY
Tether
SciTegic.value.DoubleValue
0.000

@<TRIPOS>MOLECULE
guest-1_confgen4.mol2 : confsearch ligand conformer 449
          17          16           1
SMALL
USER_CHARGES
 
@<TRIPOS>ATOM
       1    N1      19.252663   17.171714   21.471416 N.4        1 MOL1        -0.5891
       2    H1      18.697471   17.640649   22.192739 H          1 MOL1         0.3726
       3    H2      19.877910   16.515817   21.949165 H          1 MOL1         0.3726
       4    H3      18.603068   16.609803   20.911996 H          1 MOL1         0.3726
       5    C1      20.018755   18.164259   20.618294 C.3        1 MOL1         0.0314
       6    H4      19.294248   18.811057   20.116749 H          1 MOL1         0.0999
       7    H5      20.555299   17.599421   19.851080 H          1 MOL1         0.0999
       8    C2      21.021728   19.025273   21.413667 C.3        1 MOL1        -0.1308
       9    H6      21.768902   18.369667   21.880209 H          1 MOL1         0.1025
      10    H7      21.572158   19.663582   20.709826 H          1 MOL1         0.1025
      11    C3      20.366452   19.913081   22.500850 C.3        1 MOL1        -0.1243
      12    H8      21.154735   20.475134   23.021051 H          1 MOL1         0.1025
      13    H9      19.888581   19.284272   23.264325 H          1 MOL1         0.1025
      14    C4      19.334039   20.910344   21.926927 C.3        1 MOL1        -0.2258
      15    H10     19.788760   21.552006   21.161050 H          1 MOL1         0.1036
      16    H11     18.944865   21.561100   22.720671 H          1 MOL1         0.1036
      17    H12     18.479008   20.391583   21.475533 H          1 MOL1         0.1036
@<TRIPOS>BOND
    1     1     2    1
    2     1     3    1
    3     1     4    1
    4     1     5    1
    5     5     6    1
    6     5     7    1
    7     5     8    1
    8     8     9    1
    9     8    10    1
   10     8    11    1
   11    11    12    1
   12    11    13    1
   13    11    14    1
   14    14    15    1
   15    14    16    1
   16    14    17    1
@<TRIPOS>SUBSTRUCTURE
       1 MOL1            1 RESIDUE      1      MOL     
@<SCITEGIC>MOL_PROPERTY
VConf Rank
SciTegic.value.IntegerValue
449

@<SCITEGIC>MOL_PROPERTY
Conf_Id
SciTegic.value.IntegerValue
1

@<SCITEGIC>MOL_PROPERTY
Delta U+W
SciTegic.value.DoubleValue
0.685

@<SCITEGIC>MOL_PROPERTY
U+W
SciTegic.value.DoubleValue
-15.179

@<SCITEGIC>MOL_PROPERTY
Grad RMS
SciTegic.value.DoubleValue
0.000000

@<SCITEGIC>MOL_PROPERTY
U
SciTegic.value.DoubleValue
45.697

@<SCITEGIC>MOL_PROPERTY
W
SciTegic.value.DoubleValue
-60.876

@<SCITEGIC>MOL_PROPERTY
W(PB)
SciTegic.value.DoubleValue
-62.586

@<SCITEGIC>MOL_PROPERTY
W(SA)
SciTegic.value.DoubleValue
1.710

@<SCITEGIC>MOL_PROPERTY
Valence
SciTegic.value.DoubleValue
1.263

@<SCITEGIC>MOL_PROPERTY
Coulomb
SciTegic.value.DoubleValue
44.179

@<SCITEGIC>MOL_PROPERTY
VdW
SciTegic.value.DoubleValue
0.255

@<SCITEGIC>MOL_PROPERTY
VdW6
SciTegic.value.DoubleValue
-3.552

@<SCITEGIC>MOL_PROPERTY
VdW12
SciTegic.value.DoubleValue
3.807

@<SCITEGIC>MOL_PROPERTY
Bond
SciTegic.value.DoubleValue
0.125

@<SCITEGIC>MOL_PROPERTY
Angle
SciTegic.value.DoubleValue
0.616

@<SCITEGIC>MOL_PROPERTY
Pdih
SciTegic.value.DoubleValue
0.521

@<SCITEGIC>MOL_PROPERTY
Idih
SciTegic.value.DoubleValue
0.000

@<SCITEGIC>MOL_PROPERTY
Tether
SciTegic.value.DoubleValue
0.000

@<TRIPOS>MOLECULE
guest-1_confgen4.mol2 : confsearch ligand conformer 450
          17          16           1
SMALL
USER_CHARGES
 
@<TRIPOS>ATOM
       1    N1      18.467801   17.680809   21.589517 N.4        1 MOL1        -0.5891
       2    H1      17.787260   17.857189   22.334589 H          1 MOL1         0.3726
       3    H2      19.283623   17.239265   22.023016 H          1 MOL1         0.3726
       4    H3      18.049388   16.986118   20.962618 H          1 MOL1         0.3726
       5    C1      18.842347   18.952307   20.852723 C.3        1 MOL1         0.0314
       6    H4      17.935293   19.346394   20.386370 H          1 MOL1         0.0999
       7    H5      19.544283   18.689400   20.057128 H          1 MOL1         0.0999
       8    C2      19.463758   20.036322   21.757533 C.3        1 MOL1        -0.1308
       9    H6      19.641523   20.937065   21.155150 H          1 MOL1         0.1025
      10    H7      18.736160   20.322880   22.528397 H          1 MOL1         0.1025
      11    C3      20.788870   19.607394   22.435514 C.3        1 MOL1        -0.1243
      12    H8      20.609545   18.762443   23.114156 H          1 MOL1         0.1025
      13    H9      21.146485   20.432757   23.067013 H          1 MOL1         0.1025
      14    C4      21.894948   19.235206   21.421677 C.3        1 MOL1        -0.2258
      15    H10     22.832381   19.001877   21.942968 H          1 MOL1         0.1036
      16    H11     22.093485   20.065648   20.731737 H          1 MOL1         0.1036
      17    H12     21.618836   18.354964   20.827635 H          1 MOL1         0.1036
@<TRIPOS>BOND
    1     1     2    1
    2     1     3    1
    3     1     4    1
    4     1     5    1
    5     5     6    1
    6     5     7    1
    7     5     8    1
    8     8     9    1
    9     8    10    1
   10     8    11    1
   11    11    12    1
   12    11    13    1
   13    11    14    1
   14    14    15    1
   15    14    16    1
   16    14    17    1
@<TRIPOS>SUBSTRUCTURE
       1 MOL1            1 RESIDUE      1      MOL     
@<SCITEGIC>MOL_PROPERTY
VConf Rank
SciTegic.value.IntegerValue
450

@<SCITEGIC>MOL_PROPERTY
Conf_Id
SciTegic.value.IntegerValue
43

@<SCITEGIC>MOL_PROPERTY
Delta U+W
SciTegic.value.DoubleValue
0.642

@<SCITEGIC>MOL_PROPERTY
U+W
SciTegic.value.DoubleValue
-15.222

@<SCITEGIC>MOL_PROPERTY
Grad RMS
SciTegic.value.DoubleValue
0.000000

@<SCITEGIC>MOL_PROPERTY
U
SciTegic.value.DoubleValue
45.697

@<SCITEGIC>MOL_PROPERTY
W
SciTegic.value.DoubleValue
-60.919

@<SCITEGIC>MOL_PROPERTY
W(PB)
SciTegic.value.DoubleValue
-62.631

@<SCITEGIC>MOL_PROPERTY
W(SA)
SciTegic.value.DoubleValue
1.712

@<SCITEGIC>MOL_PROPERTY
Valence
SciTegic.value.DoubleValue
1.262

@<SCITEGIC>MOL_PROPERTY
Coulomb
SciTegic.value.DoubleValue
44.179

@<SCITEGIC>MOL_PROPERTY
VdW
SciTegic.value.DoubleValue
0.255

@<SCITEGIC>MOL_PROPERTY
VdW6
SciTegic.value.DoubleValue
-3.552

@<SCITEGIC>MOL_PROPERTY
VdW12
SciTegic.value.DoubleValue
3.807

@<SCITEGIC>MOL_PROPERTY
Bond
SciTegic.value.DoubleValue
0.125

@<SCITEGIC>MOL_PROPERTY
Angle
SciTegic.value.DoubleValue
0.616

@<SCITEGIC>MOL_PROPERTY
Pdih
SciTegic.value.DoubleValue
0.521

@<SCITEGIC>MOL_PROPERTY
Idih
SciTegic.value.DoubleValue
0.000

@<SCITEGIC>MOL_PROPERTY
Tether
SciTegic.value.DoubleValue
0.000

@<TRIPOS>MOLECULE
guest-1_confgen4.mol2 : confsearch ligand conformer 451
          17          16           1
SMALL
USER_CHARGES
 
@<TRIPOS>ATOM
       1    N1      18.871238   19.020982   23.928139 N.4        1 MOL1        -0.5891
       2    H1      19.378698   18.211112   24.297315 H          1 MOL1         0.3726
       3    H2      17.946485   18.689387   23.637322 H          1 MOL1         0.3726
       4    H3      18.722461   19.661135   24.714892 H          1 MOL1         0.3726
       5    C1      19.618331   19.689365   22.791270 C.3        1 MOL1         0.0314
       6    H4      20.577145   20.043564   23.179525 H          1 MOL1         0.0999
       7    H5      19.037072   20.557898   22.469844 H          1 MOL1         0.0999
       8    C2      19.859222   18.755178   21.591467 C.3        1 MOL1        -0.1308
       9    H6      20.429803   17.876726   21.921240 H          1 MOL1         0.1025
      10    H7      18.895035   18.389412   21.213912 H          1 MOL1         0.1025
      11    C3      20.622147   19.474290   20.457295 C.3        1 MOL1        -0.1243
      12    H8      21.585958   19.843558   20.835495 H          1 MOL1         0.1025
      13    H9      20.053040   20.355568   20.128977 H          1 MOL1         0.1025
      14    C4      20.867506   18.543270   19.250252 C.3        1 MOL1        -0.2258
      15    H10     21.410255   19.072474   18.456265 H          1 MOL1         0.1036
      16    H11     19.919520   18.184905   18.828227 H          1 MOL1         0.1036
      17    H12     21.464491   17.668821   19.540346 H          1 MOL1         0.1036
@<TRIPOS>BOND
    1     1     2    1
    2     1     3    1
    3     1     4    1
    4     1     5    1
    5     5     6    1
    6     5     7    1
    7     5     8    1
    8     8     9    1
    9     8    10    1
   10     8    11    1
   11    11    12    1
   12    11    13    1
   13    11    14    1
   14    14    15    1
   15    14    16    1
   16    14    17    1
@<TRIPOS>SUBSTRUCTURE
       1 MOL1            1 RESIDUE      1      MOL     
@<SCITEGIC>MOL_PROPERTY
VConf Rank
SciTegic.value.IntegerValue
451

@<SCITEGIC>MOL_PROPERTY
Conf_Id
SciTegic.value.IntegerValue
7

@<SCITEGIC>MOL_PROPERTY
Delta U+W
SciTegic.value.DoubleValue
0.000

@<SCITEGIC>MOL_PROPERTY
U+W
SciTegic.value.DoubleValue
-15.865

@<SCITEGIC>MOL_PROPERTY
Grad RMS
SciTegic.value.DoubleValue
0.000000

@<SCITEGIC>MOL_PROPERTY
U
SciTegic.value.DoubleValue
44.664

@<SCITEGIC>MOL_PROPERTY
W
SciTegic.value.DoubleValue
-60.529

@<SCITEGIC>MOL_PROPERTY
W(PB)
SciTegic.value.DoubleValue
-62.309

@<SCITEGIC>MOL_PROPERTY
W(SA)
SciTegic.value.DoubleValue
1.780

@<SCITEGIC>MOL_PROPERTY
Valence
SciTegic.value.DoubleValue
0.872

@<SCITEGIC>MOL_PROPERTY
Coulomb
SciTegic.value.DoubleValue
43.648

@<SCITEGIC>MOL_PROPERTY
VdW
SciTegic.value.DoubleValue
0.144

@<SCITEGIC>MOL_PROPERTY
VdW6
SciTegic.value.DoubleValue
-2.370

@<SCITEGIC>MOL_PROPERTY
VdW12
SciTegic.value.DoubleValue
2.515

@<SCITEGIC>MOL_PROPERTY
Bond
SciTegic.value.DoubleValue
0.080

@<SCITEGIC>MOL_PROPERTY
Angle
SciTegic.value.DoubleValue
0.376

@<SCITEGIC>MOL_PROPERTY
Pdih
SciTegic.value.DoubleValue
0.416

@<SCITEGIC>MOL_PROPERTY
Idih
SciTegic.value.DoubleValue
0.000

@<SCITEGIC>MOL_PROPERTY
Tether
SciTegic.value.DoubleValue
0.000

@<TRIPOS>MOLECULE
guest-1_confgen4.mol2 : confsearch ligand conformer 452
          17          16           1
SMALL
USER_CHARGES
 
@<TRIPOS>ATOM
       1    N1      18.794075   21.009837   20.683135 N.4        1 MOL1        -0.5891
       2    H1      17.803905   20.963991   20.942191 H          1 MOL1         0.3726
       3    H2      18.859451   20.741855   19.696444 H          1 MOL1         0.3726
       4    H3      19.070219   21.995319   20.741543 H          1 MOL1         0.3726
       5    C1      19.653976   20.130003   21.568470 C.3        1 MOL1         0.0314
       6    H4      19.559577   20.490039   22.596513 H          1 MOL1         0.0999
       7    H5      20.694122   20.253590   21.255964 H          1 MOL1         0.0999
       8    C2      19.265472   18.640408   21.504215 C.3        1 MOL1        -0.1308
       9    H6      18.208387   18.532001   21.781155 H          1 MOL1         0.1025
      10    H7      19.358680   18.279248   20.471372 H          1 MOL1         0.1025
      11    C3      20.124111   17.759095   22.441249 C.3        1 MOL1        -0.1243
      12    H8      19.744815   16.728063   22.408234 H          1 MOL1         0.1025
      13    H9      20.005880   18.098459   23.480016 H          1 MOL1         0.1025
      14    C4      21.623106   17.757123   22.063139 C.3        1 MOL1        -0.2258
      15    H10     21.768601   17.427132   21.026287 H          1 MOL1         0.1036
      16    H11     22.183283   17.073113   22.713784 H          1 MOL1         0.1036
      17    H12     22.067723   18.754496   22.171089 H          1 MOL1         0.1036
@<TRIPOS>BOND
    1     1     2    1
    2     1     3    1
    3     1     4    1
    4     1     5    1
    5     5     6    1
    6     5     7    1
    7     5     8    1
    8     8     9    1
    9     8    10    1
   10     8    11    1
   11    11    12    1
   12    11    13    1
   13    11    14    1
   14    14    15    1
   15    14    16    1
   16    14    17    1
@<TRIPOS>SUBSTRUCTURE
       1 MOL1            1 RESIDUE      1      MOL     
@<SCITEGIC>MOL_PROPERTY
VConf Rank
SciTegic.value.IntegerValue
452

@<SCITEGIC>MOL_PROPERTY
Conf_Id
SciTegic.value.IntegerValue
36

@<SCITEGIC>MOL_PROPERTY
Delta U+W
SciTegic.value.DoubleValue
0.275

@<SCITEGIC>MOL_PROPERTY
U+W
SciTegic.value.DoubleValue
-15.590

@<SCITEGIC>MOL_PROPERTY
Grad RMS
SciTegic.value.DoubleValue
0.000000

@<SCITEGIC>MOL_PROPERTY
U
SciTegic.value.DoubleValue
45.174

@<SCITEGIC>MOL_PROPERTY
W
SciTegic.value.DoubleValue
-60.765

@<SCITEGIC>MOL_PROPERTY
W(PB)
SciTegic.value.DoubleValue
-62.518

@<SCITEGIC>MOL_PROPERTY
W(SA)
SciTegic.value.DoubleValue
1.754

@<SCITEGIC>MOL_PROPERTY
Valence
SciTegic.value.DoubleValue
1.161

@<SCITEGIC>MOL_PROPERTY
Coulomb
SciTegic.value.DoubleValue
43.789

@<SCITEGIC>MOL_PROPERTY
VdW
SciTegic.value.DoubleValue
0.224

@<SCITEGIC>MOL_PROPERTY
VdW6
SciTegic.value.DoubleValue
-2.897

@<SCITEGIC>MOL_PROPERTY
VdW12
SciTegic.value.DoubleValue
3.121

@<SCITEGIC>MOL_PROPERTY
Bond
SciTegic.value.DoubleValue
0.100

@<SCITEGIC>MOL_PROPERTY
Angle
SciTegic.value.DoubleValue
0.500

@<SCITEGIC>MOL_PROPERTY
Pdih
SciTegic.value.DoubleValue
0.561

@<SCITEGIC>MOL_PROPERTY
Idih
SciTegic.value.DoubleValue
0.000

@<SCITEGIC>MOL_PROPERTY
Tether
SciTegic.value.DoubleValue
0.000

@<TRIPOS>MOLECULE
guest-1_confgen4.mol2 : confsearch ligand conformer 453
          17          16           1
SMALL
USER_CHARGES
 
@<TRIPOS>ATOM
       1    N1      19.002184   20.240204   22.605900 N.4        1 MOL1        -0.5891
       2    H1      19.702043   19.756446   23.174249 H          1 MOL1         0.3726
       3    H2      18.095199   19.813177   22.816867 H          1 MOL1         0.3726
       4    H3      18.959259   21.208841   22.938650 H          1 MOL1         0.3726
       5    C1      19.329735   20.165719   21.126984 C.3        1 MOL1         0.0314
       6    H4      20.270562   20.694345   20.951763 H          1 MOL1         0.0999
       7    H5      18.537552   20.701177   20.596637 H          1 MOL1         0.0999
       8    C2      19.425882   18.729702   20.570008 C.3        1 MOL1        -0.1308
       9    H6      18.596492   18.121410   20.954485 H          1 MOL1         0.1025
      10    H7      19.282144   18.781971   19.482601 H          1 MOL1         0.1025
      11    C3      20.780480   18.025586   20.838316 C.3        1 MOL1        -0.1243
      12    H8      21.596509   18.612416   20.393625 H          1 MOL1         0.1025
      13    H9      20.778883   17.060440   20.312503 H          1 MOL1         0.1025
      14    C4      21.083726   17.771505   22.332427 C.3        1 MOL1        -0.2258
      15    H10     21.302195   18.705474   22.863132 H          1 MOL1         0.1036
      16    H11     21.966431   17.127313   22.437332 H          1 MOL1         0.1036
      17    H12     20.243922   17.268992   22.829782 H          1 MOL1         0.1036
@<TRIPOS>BOND
    1     1     2    1
    2     1     3    1
    3     1     4    1
    4     1     5    1
    5     5     6    1
    6     5     7    1
    7     5     8    1
    8     8     9    1
    9     8    10    1
   10     8    11    1
   11    11    12    1
   12    11    13    1
   13    11    14    1
   14    14    15    1
   15    14    16    1
   16    14    17    1
@<TRIPOS>SUBSTRUCTURE
       1 MOL1            1 RESIDUE      1      MOL     
@<SCITEGIC>MOL_PROPERTY
VConf Rank
SciTegic.value.IntegerValue
453

@<SCITEGIC>MOL_PROPERTY
Conf_Id
SciTegic.value.IntegerValue
19

@<SCITEGIC>MOL_PROPERTY
Delta U+W
SciTegic.value.DoubleValue
2.662

@<SCITEGIC>MOL_PROPERTY
U+W
SciTegic.value.DoubleValue
-13.203

@<SCITEGIC>MOL_PROPERTY
Grad RMS
SciTegic.value.DoubleValue
0.000000

@<SCITEGIC>MOL_PROPERTY
U
SciTegic.value.DoubleValue
47.423

@<SCITEGIC>MOL_PROPERTY
W
SciTegic.value.DoubleValue
-60.626

@<SCITEGIC>MOL_PROPERTY
W(PB)
SciTegic.value.DoubleValue
-62.328

@<SCITEGIC>MOL_PROPERTY
W(SA)
SciTegic.value.DoubleValue
1.702

@<SCITEGIC>MOL_PROPERTY
Valence
SciTegic.value.DoubleValue
2.414

@<SCITEGIC>MOL_PROPERTY
Coulomb
SciTegic.value.DoubleValue
44.831

@<SCITEGIC>MOL_PROPERTY
VdW
SciTegic.value.DoubleValue
0.178

@<SCITEGIC>MOL_PROPERTY
VdW6
SciTegic.value.DoubleValue
-3.743

@<SCITEGIC>MOL_PROPERTY
VdW12
SciTegic.value.DoubleValue
3.921

@<SCITEGIC>MOL_PROPERTY
Bond
SciTegic.value.DoubleValue
0.138

@<SCITEGIC>MOL_PROPERTY
Angle
SciTegic.value.DoubleValue
0.941

@<SCITEGIC>MOL_PROPERTY
Pdih
SciTegic.value.DoubleValue
1.335

@<SCITEGIC>MOL_PROPERTY
Idih
SciTegic.value.DoubleValue
0.000

@<SCITEGIC>MOL_PROPERTY
Tether
SciTegic.value.DoubleValue
0.000

@<TRIPOS>MOLECULE
guest-1_confgen4.mol2 : confsearch ligand conformer 454
          17          16           1
SMALL
USER_CHARGES
 
@<TRIPOS>ATOM
       1    N1      20.414764   20.393809   20.419355 N.4        1 MOL1        -0.5891
       2    H1      20.671062   20.627767   19.454783 H          1 MOL1         0.3726
       3    H2      20.668407   21.200207   20.998033 H          1 MOL1         0.3726
       4    H3      19.395428   20.310701   20.449228 H          1 MOL1         0.3726
       5    C1      21.096476   19.124243   20.892124 C.3        1 MOL1         0.0314
       6    H4      22.174226   19.298102   20.830771 H          1 MOL1         0.0999
       7    H5      20.844848   18.315748   20.200516 H          1 MOL1         0.0999
       8    C2      20.735411   18.709464   22.334067 C.3        1 MOL1        -0.1308
       9    H6      21.530067   18.046150   22.700649 H          1 MOL1         0.1025
      10    H7      20.749209   19.588261   22.992289 H          1 MOL1         0.1025
      11    C3      19.386966   17.956793   22.467800 C.3        1 MOL1        -0.1243
      12    H8      19.281011   17.618898   23.508276 H          1 MOL1         0.1025
      13    H9      19.409720   17.045751   21.853384 H          1 MOL1         0.1025
      14    C4      18.145516   18.798588   22.094890 C.3        1 MOL1        -0.2258
      15    H10     18.143064   19.760915   22.623164 H          1 MOL1         0.1036
      16    H11     17.226873   18.264836   22.371223 H          1 MOL1         0.1036
      17    H12     18.096164   18.986614   21.016052 H          1 MOL1         0.1036
@<TRIPOS>BOND
    1     1     2    1
    2     1     3    1
    3     1     4    1
    4     1     5    1
    5     5     6    1
    6     5     7    1
    7     5     8    1
    8     8     9    1
    9     8    10    1
   10     8    11    1
   11    11    12    1
   12    11    13    1
   13    11    14    1
   14    14    15    1
   15    14    16    1
   16    14    17    1
@<TRIPOS>SUBSTRUCTURE
       1 MOL1            1 RESIDUE      1      MOL     
@<SCITEGIC>MOL_PROPERTY
VConf Rank
SciTegic.value.IntegerValue
454

@<SCITEGIC>MOL_PROPERTY
Conf_Id
SciTegic.value.IntegerValue
44

@<SCITEGIC>MOL_PROPERTY
Delta U+W
SciTegic.value.DoubleValue
2.712

@<SCITEGIC>MOL_PROPERTY
U+W
SciTegic.value.DoubleValue
-13.153

@<SCITEGIC>MOL_PROPERTY
Grad RMS
SciTegic.value.DoubleValue
0.000000

@<SCITEGIC>MOL_PROPERTY
U
SciTegic.value.DoubleValue
47.423

@<SCITEGIC>MOL_PROPERTY
W
SciTegic.value.DoubleValue
-60.576

@<SCITEGIC>MOL_PROPERTY
W(PB)
SciTegic.value.DoubleValue
-62.262

@<SCITEGIC>MOL_PROPERTY
W(SA)
SciTegic.value.DoubleValue
1.687

@<SCITEGIC>MOL_PROPERTY
Valence
SciTegic.value.DoubleValue
2.414

@<SCITEGIC>MOL_PROPERTY
Coulomb
SciTegic.value.DoubleValue
44.831

@<SCITEGIC>MOL_PROPERTY
VdW
SciTegic.value.DoubleValue
0.178

@<SCITEGIC>MOL_PROPERTY
VdW6
SciTegic.value.DoubleValue
-3.743

@<SCITEGIC>MOL_PROPERTY
VdW12
SciTegic.value.DoubleValue
3.922

@<SCITEGIC>MOL_PROPERTY
Bond
SciTegic.value.DoubleValue
0.138

@<SCITEGIC>MOL_PROPERTY
Angle
SciTegic.value.DoubleValue
0.941

@<SCITEGIC>MOL_PROPERTY
Pdih
SciTegic.value.DoubleValue
1.335

@<SCITEGIC>MOL_PROPERTY
Idih
SciTegic.value.DoubleValue
0.000

@<SCITEGIC>MOL_PROPERTY
Tether
SciTegic.value.DoubleValue
0.000

@<TRIPOS>MOLECULE
guest-1_confgen4.mol2 : confsearch ligand conformer 455
          17          16           1
SMALL
USER_CHARGES
 
@<TRIPOS>ATOM
       1    N1      18.045856   19.321619   22.197549 N.4        1 MOL1        -0.5891
       2    H1      18.025075   18.594086   21.477333 H          1 MOL1         0.3726
       3    H2      17.642882   20.168090   21.784660 H          1 MOL1         0.3726
       4    H3      17.409674   19.022454   22.943498 H          1 MOL1         0.3726
       5    C1      19.451085   19.558834   22.716122 C.3        1 MOL1         0.0314
       6    H4      19.807802   18.629376   23.167415 H          1 MOL1         0.0999
       7    H5      19.392247   20.315654   23.503077 H          1 MOL1         0.0999
       8    C2      20.444454   20.025518   21.631989 C.3        1 MOL1        -0.1308
       9    H6      20.098847   20.980007   21.213355 H          1 MOL1         0.1025
      10    H7      21.411973   20.233059   22.108054 H          1 MOL1         0.1025
      11    C3      20.649905   19.005312   20.484590 C.3        1 MOL1        -0.1243
      12    H8      21.357669   19.428096   19.757798 H          1 MOL1         0.1025
      13    H9      19.708295   18.856050   19.938929 H          1 MOL1         0.1025
      14    C4      21.188766   17.642138   20.975696 C.3        1 MOL1        -0.2258
      15    H10     22.131707   17.764996   21.524181 H          1 MOL1         0.1036
      16    H11     21.380772   16.975047   20.125348 H          1 MOL1         0.1036
      17    H12     20.471633   17.138426   21.635955 H          1 MOL1         0.1036
@<TRIPOS>BOND
    1     1     2    1
    2     1     3    1
    3     1     4    1
    4     1     5    1
    5     5     6    1
    6     5     7    1
    7     5     8    1
    8     8     9    1
    9     8    10    1
   10     8    11    1
   11    11    12    1
   12    11    13    1
   13    11    14    1
   14    14    15    1
   15    14    16    1
   16    14    17    1
@<TRIPOS>SUBSTRUCTURE
       1 MOL1            1 RESIDUE      1      MOL     
@<SCITEGIC>MOL_PROPERTY
VConf Rank
SciTegic.value.IntegerValue
455

@<SCITEGIC>MOL_PROPERTY
Conf_Id
SciTegic.value.IntegerValue
1

@<SCITEGIC>MOL_PROPERTY
Delta U+W
SciTegic.value.DoubleValue
0.685

@<SCITEGIC>MOL_PROPERTY
U+W
SciTegic.value.DoubleValue
-15.179

@<SCITEGIC>MOL_PROPERTY
Grad RMS
SciTegic.value.DoubleValue
0.000000

@<SCITEGIC>MOL_PROPERTY
U
SciTegic.value.DoubleValue
45.697

@<SCITEGIC>MOL_PROPERTY
W
SciTegic.value.DoubleValue
-60.876

@<SCITEGIC>MOL_PROPERTY
W(PB)
SciTegic.value.DoubleValue
-62.586

@<SCITEGIC>MOL_PROPERTY
W(SA)
SciTegic.value.DoubleValue
1.710

@<SCITEGIC>MOL_PROPERTY
Valence
SciTegic.value.DoubleValue
1.263

@<SCITEGIC>MOL_PROPERTY
Coulomb
SciTegic.value.DoubleValue
44.179

@<SCITEGIC>MOL_PROPERTY
VdW
SciTegic.value.DoubleValue
0.255

@<SCITEGIC>MOL_PROPERTY
VdW6
SciTegic.value.DoubleValue
-3.552

@<SCITEGIC>MOL_PROPERTY
VdW12
SciTegic.value.DoubleValue
3.807

@<SCITEGIC>MOL_PROPERTY
Bond
SciTegic.value.DoubleValue
0.125

@<SCITEGIC>MOL_PROPERTY
Angle
SciTegic.value.DoubleValue
0.616

@<SCITEGIC>MOL_PROPERTY
Pdih
SciTegic.value.DoubleValue
0.521

@<SCITEGIC>MOL_PROPERTY
Idih
SciTegic.value.DoubleValue
0.000

@<SCITEGIC>MOL_PROPERTY
Tether
SciTegic.value.DoubleValue
0.000

@<TRIPOS>MOLECULE
guest-1_confgen4.mol2 : confsearch ligand conformer 456
          17          16           1
SMALL
USER_CHARGES
 
@<TRIPOS>ATOM
       1    N1      21.247470   18.537376   22.997718 N.4        1 MOL1        -0.5891
       2    H1      21.109521   19.082290   23.854115 H          1 MOL1         0.3726
       3    H2      21.729669   19.143272   22.327777 H          1 MOL1         0.3726
       4    H3      21.892586   17.775561   23.230377 H          1 MOL1         0.3726
       5    C1      19.936472   18.016171   22.441400 C.3        1 MOL1         0.0314
       6    H4      19.497989   17.350974   23.190254 H          1 MOL1         0.0999
       7    H5      20.157771   17.422606   21.550606 H          1 MOL1         0.0999
       8    C2      18.924478   19.125918   22.088912 C.3        1 MOL1        -0.1308
       9    H6      17.989051   18.655877   21.757488 H          1 MOL1         0.1025
      10    H7      18.677541   19.690425   22.997813 H          1 MOL1         0.1025
      11    C3      19.418385   20.104453   20.994341 C.3        1 MOL1        -0.1243
      12    H8      20.303138   20.651123   21.347921 H          1 MOL1         0.1025
      13    H9      18.642218   20.863191   20.821757 H          1 MOL1         0.1025
      14    C4      19.740878   19.402419   19.655332 C.3        1 MOL1        -0.2258
      15    H10     20.023077   20.139447   18.892363 H          1 MOL1         0.1036
      16    H11     18.870167   18.849076   19.280178 H          1 MOL1         0.1036
      17    H12     20.575576   18.697862   19.759389 H          1 MOL1         0.1036
@<TRIPOS>BOND
    1     1     2    1
    2     1     3    1
    3     1     4    1
    4     1     5    1
    5     5     6    1
    6     5     7    1
    7     5     8    1
    8     8     9    1
    9     8    10    1
   10     8    11    1
   11    11    12    1
   12    11    13    1
   13    11    14    1
   14    14    15    1
   15    14    16    1
   16    14    17    1
@<TRIPOS>SUBSTRUCTURE
       1 MOL1            1 RESIDUE      1      MOL     
@<SCITEGIC>MOL_PROPERTY
VConf Rank
SciTegic.value.IntegerValue
456

@<SCITEGIC>MOL_PROPERTY
Conf_Id
SciTegic.value.IntegerValue
43

@<SCITEGIC>MOL_PROPERTY
Delta U+W
SciTegic.value.DoubleValue
0.642

@<SCITEGIC>MOL_PROPERTY
U+W
SciTegic.value.DoubleValue
-15.222

@<SCITEGIC>MOL_PROPERTY
Grad RMS
SciTegic.value.DoubleValue
0.000000

@<SCITEGIC>MOL_PROPERTY
U
SciTegic.value.DoubleValue
45.697

@<SCITEGIC>MOL_PROPERTY
W
SciTegic.value.DoubleValue
-60.919

@<SCITEGIC>MOL_PROPERTY
W(PB)
SciTegic.value.DoubleValue
-62.631

@<SCITEGIC>MOL_PROPERTY
W(SA)
SciTegic.value.DoubleValue
1.712

@<SCITEGIC>MOL_PROPERTY
Valence
SciTegic.value.DoubleValue
1.262

@<SCITEGIC>MOL_PROPERTY
Coulomb
SciTegic.value.DoubleValue
44.179

@<SCITEGIC>MOL_PROPERTY
VdW
SciTegic.value.DoubleValue
0.255

@<SCITEGIC>MOL_PROPERTY
VdW6
SciTegic.value.DoubleValue
-3.552

@<SCITEGIC>MOL_PROPERTY
VdW12
SciTegic.value.DoubleValue
3.807

@<SCITEGIC>MOL_PROPERTY
Bond
SciTegic.value.DoubleValue
0.125

@<SCITEGIC>MOL_PROPERTY
Angle
SciTegic.value.DoubleValue
0.616

@<SCITEGIC>MOL_PROPERTY
Pdih
SciTegic.value.DoubleValue
0.521

@<SCITEGIC>MOL_PROPERTY
Idih
SciTegic.value.DoubleValue
0.000

@<SCITEGIC>MOL_PROPERTY
Tether
SciTegic.value.DoubleValue
0.000

@<TRIPOS>MOLECULE
guest-1_confgen4.mol2 : confsearch ligand conformer 457
          17          16           1
SMALL
USER_CHARGES
 
@<TRIPOS>ATOM
       1    N1      21.288972   17.338405   22.960638 N.4        1 MOL1        -0.5891
       2    H1      21.052423   17.692532   23.892483 H          1 MOL1         0.3726
       3    H2      22.225464   17.687426   22.735107 H          1 MOL1         0.3726
       4    H3      21.364179   16.319221   23.041361 H          1 MOL1         0.3726
       5    C1      20.264810   17.747316   21.920810 C.3        1 MOL1         0.0314
       6    H4      19.301667   17.316776   22.208063 H          1 MOL1         0.0999
       7    H5      20.563042   17.311246   20.963509 H          1 MOL1         0.0999
       8    C2      20.125995   19.273502   21.773334 C.3        1 MOL1        -0.1308
       9    H6      19.841539   19.709578   22.740244 H          1 MOL1         0.1025
      10    H7      21.098527   19.704046   21.499831 H          1 MOL1         0.1025
      11    C3      19.074078   19.646527   20.705700 C.3        1 MOL1        -0.1243
      12    H8      18.101095   19.213042   20.977215 H          1 MOL1         0.1025
      13    H9      19.356577   19.207586   19.738306 H          1 MOL1         0.1025
      14    C4      18.929295   21.176052   20.552253 C.3        1 MOL1        -0.2258
      15    H10     18.178032   21.419983   19.789920 H          1 MOL1         0.1036
      16    H11     19.879024   21.634454   20.247146 H          1 MOL1         0.1036
      17    H12     18.613689   21.639953   21.495861 H          1 MOL1         0.1036
@<TRIPOS>BOND
    1     1     2    1
    2     1     3    1
    3     1     4    1
    4     1     5    1
    5     5     6    1
    6     5     7    1
    7     5     8    1
    8     8     9    1
    9     8    10    1
   10     8    11    1
   11    11    12    1
   12    11    13    1
   13    11    14    1
   14    14    15    1
   15    14    16    1
   16    14    17    1
@<TRIPOS>SUBSTRUCTURE
       1 MOL1            1 RESIDUE      1      MOL     
@<SCITEGIC>MOL_PROPERTY
VConf Rank
SciTegic.value.IntegerValue
457

@<SCITEGIC>MOL_PROPERTY
Conf_Id
SciTegic.value.IntegerValue
7

@<SCITEGIC>MOL_PROPERTY
Delta U+W
SciTegic.value.DoubleValue
0.000

@<SCITEGIC>MOL_PROPERTY
U+W
SciTegic.value.DoubleValue
-15.865

@<SCITEGIC>MOL_PROPERTY
Grad RMS
SciTegic.value.DoubleValue
0.000000

@<SCITEGIC>MOL_PROPERTY
U
SciTegic.value.DoubleValue
44.664

@<SCITEGIC>MOL_PROPERTY
W
SciTegic.value.DoubleValue
-60.529

@<SCITEGIC>MOL_PROPERTY
W(PB)
SciTegic.value.DoubleValue
-62.309

@<SCITEGIC>MOL_PROPERTY
W(SA)
SciTegic.value.DoubleValue
1.780

@<SCITEGIC>MOL_PROPERTY
Valence
SciTegic.value.DoubleValue
0.872

@<SCITEGIC>MOL_PROPERTY
Coulomb
SciTegic.value.DoubleValue
43.648

@<SCITEGIC>MOL_PROPERTY
VdW
SciTegic.value.DoubleValue
0.144

@<SCITEGIC>MOL_PROPERTY
VdW6
SciTegic.value.DoubleValue
-2.370

@<SCITEGIC>MOL_PROPERTY
VdW12
SciTegic.value.DoubleValue
2.515

@<SCITEGIC>MOL_PROPERTY
Bond
SciTegic.value.DoubleValue
0.080

@<SCITEGIC>MOL_PROPERTY
Angle
SciTegic.value.DoubleValue
0.376

@<SCITEGIC>MOL_PROPERTY
Pdih
SciTegic.value.DoubleValue
0.416

@<SCITEGIC>MOL_PROPERTY
Idih
SciTegic.value.DoubleValue
0.000

@<SCITEGIC>MOL_PROPERTY
Tether
SciTegic.value.DoubleValue
0.000

@<TRIPOS>MOLECULE
guest-1_confgen4.mol2 : confsearch ligand conformer 458
          17          16           1
SMALL
USER_CHARGES
 
@<TRIPOS>ATOM
       1    N1      21.845256   19.613652   22.993616 N.4        1 MOL1        -0.5891
       2    H1      22.554005   20.068656   22.410268 H          1 MOL1         0.3726
       3    H2      22.162599   18.653556   23.158400 H          1 MOL1         0.3726
       4    H3      21.858270   20.090019   23.901222 H          1 MOL1         0.3726
       5    C1      20.471500   19.655624   22.354563 C.3        1 MOL1         0.0314
       6    H4      20.185546   20.704303   22.236620 H          1 MOL1         0.0999
       7    H5      19.766200   19.183195   23.043186 H          1 MOL1         0.0999
       8    C2      20.416456   18.947411   20.987317 C.3        1 MOL1        -0.1308
       9    H6      21.156434   19.403115   20.316015 H          1 MOL1         0.1025
      10    H7      20.705282   17.894560   21.105518 H          1 MOL1         0.1025
      11    C3      19.019934   19.031182   20.327989 C.3        1 MOL1        -0.1243
      12    H8      19.070164   18.580098   19.326998 H          1 MOL1         0.1025
      13    H9      18.743576   20.084488   20.178473 H          1 MOL1         0.1025
      14    C4      17.920798   18.317411   21.147982 C.3        1 MOL1        -0.2258
      15    H10     18.175791   17.263105   21.316925 H          1 MOL1         0.1036
      16    H11     16.961634   18.348505   20.615023 H          1 MOL1         0.1036
      17    H12     17.771937   18.794892   22.124682 H          1 MOL1         0.1036
@<TRIPOS>BOND
    1     1     2    1
    2     1     3    1
    3     1     4    1
    4     1     5    1
    5     5     6    1
    6     5     7    1
    7     5     8    1
    8     8     9    1
    9     8    10    1
   10     8    11    1
   11    11    12    1
   12    11    13    1
   13    11    14    1
   14    14    15    1
   15    14    16    1
   16    14    17    1
@<TRIPOS>SUBSTRUCTURE
       1 MOL1            1 RESIDUE      1      MOL     
@<SCITEGIC>MOL_PROPERTY
VConf Rank
SciTegic.value.IntegerValue
458

@<SCITEGIC>MOL_PROPERTY
Conf_Id
SciTegic.value.IntegerValue
36

@<SCITEGIC>MOL_PROPERTY
Delta U+W
SciTegic.value.DoubleValue
0.275

@<SCITEGIC>MOL_PROPERTY
U+W
SciTegic.value.DoubleValue
-15.590

@<SCITEGIC>MOL_PROPERTY
Grad RMS
SciTegic.value.DoubleValue
0.000000

@<SCITEGIC>MOL_PROPERTY
U
SciTegic.value.DoubleValue
45.174

@<SCITEGIC>MOL_PROPERTY
W
SciTegic.value.DoubleValue
-60.765

@<SCITEGIC>MOL_PROPERTY
W(PB)
SciTegic.value.DoubleValue
-62.518

@<SCITEGIC>MOL_PROPERTY
W(SA)
SciTegic.value.DoubleValue
1.754

@<SCITEGIC>MOL_PROPERTY
Valence
SciTegic.value.DoubleValue
1.161

@<SCITEGIC>MOL_PROPERTY
Coulomb
SciTegic.value.DoubleValue
43.789

@<SCITEGIC>MOL_PROPERTY
VdW
SciTegic.value.DoubleValue
0.224

@<SCITEGIC>MOL_PROPERTY
VdW6
SciTegic.value.DoubleValue
-2.897

@<SCITEGIC>MOL_PROPERTY
VdW12
SciTegic.value.DoubleValue
3.121

@<SCITEGIC>MOL_PROPERTY
Bond
SciTegic.value.DoubleValue
0.100

@<SCITEGIC>MOL_PROPERTY
Angle
SciTegic.value.DoubleValue
0.500

@<SCITEGIC>MOL_PROPERTY
Pdih
SciTegic.value.DoubleValue
0.561

@<SCITEGIC>MOL_PROPERTY
Idih
SciTegic.value.DoubleValue
0.000

@<SCITEGIC>MOL_PROPERTY
Tether
SciTegic.value.DoubleValue
0.000

@<TRIPOS>MOLECULE
guest-1_confgen4.mol2 : confsearch ligand conformer 459
          17          16           1
SMALL
USER_CHARGES
 
@<TRIPOS>ATOM
       1    N1      20.098371   18.966349   23.453254 N.4        1 MOL1        -0.5891
       2    H1      19.808156   19.887658   23.115897 H          1 MOL1         0.3726
       3    H2      21.102042   19.020396   23.651252 H          1 MOL1         0.3726
       4    H3      19.626537   18.810060   24.349786 H          1 MOL1         0.3726
       5    C1      19.779882   17.874335   22.450209 C.3        1 MOL1         0.0314
       6    H4      18.694668   17.817585   22.330243 H          1 MOL1         0.0999
       7    H5      20.121448   16.931098   22.885152 H          1 MOL1         0.0999
       8    C2      20.448515   18.063867   21.072305 C.3        1 MOL1        -0.1308
       9    H6      21.495762   18.367648   21.201610 H          1 MOL1         0.1025
      10    H7      20.478085   17.084319   20.576868 H          1 MOL1         0.1025
      11    C3      19.712814   19.051789   20.131316 C.3        1 MOL1        -0.1243
      12    H8      18.684974   18.702491   19.959393 H          1 MOL1         0.1025
      13    H9      20.208955   19.030237   19.150822 H          1 MOL1         0.1025
      14    C4      19.682787   20.512481   20.635658 C.3        1 MOL1        -0.2258
      15    H10     19.022321   20.625074   21.503289 H          1 MOL1         0.1036
      16    H11     19.300190   21.178147   19.851016 H          1 MOL1         0.1036
      17    H12     20.687690   20.861183   20.907190 H          1 MOL1         0.1036
@<TRIPOS>BOND
    1     1     2    1
    2     1     3    1
    3     1     4    1
    4     1     5    1
    5     5     6    1
    6     5     7    1
    7     5     8    1
    8     8     9    1
    9     8    10    1
   10     8    11    1
   11    11    12    1
   12    11    13    1
   13    11    14    1
   14    14    15    1
   15    14    16    1
   16    14    17    1
@<TRIPOS>SUBSTRUCTURE
       1 MOL1            1 RESIDUE      1      MOL     
@<SCITEGIC>MOL_PROPERTY
VConf Rank
SciTegic.value.IntegerValue
459

@<SCITEGIC>MOL_PROPERTY
Conf_Id
SciTegic.value.IntegerValue
19

@<SCITEGIC>MOL_PROPERTY
Delta U+W
SciTegic.value.DoubleValue
2.662

@<SCITEGIC>MOL_PROPERTY
U+W
SciTegic.value.DoubleValue
-13.203

@<SCITEGIC>MOL_PROPERTY
Grad RMS
SciTegic.value.DoubleValue
0.000000

@<SCITEGIC>MOL_PROPERTY
U
SciTegic.value.DoubleValue
47.423

@<SCITEGIC>MOL_PROPERTY
W
SciTegic.value.DoubleValue
-60.626

@<SCITEGIC>MOL_PROPERTY
W(PB)
SciTegic.value.DoubleValue
-62.328

@<SCITEGIC>MOL_PROPERTY
W(SA)
SciTegic.value.DoubleValue
1.702

@<SCITEGIC>MOL_PROPERTY
Valence
SciTegic.value.DoubleValue
2.414

@<SCITEGIC>MOL_PROPERTY
Coulomb
SciTegic.value.DoubleValue
44.831

@<SCITEGIC>MOL_PROPERTY
VdW
SciTegic.value.DoubleValue
0.178

@<SCITEGIC>MOL_PROPERTY
VdW6
SciTegic.value.DoubleValue
-3.743

@<SCITEGIC>MOL_PROPERTY
VdW12
SciTegic.value.DoubleValue
3.921

@<SCITEGIC>MOL_PROPERTY
Bond
SciTegic.value.DoubleValue
0.138

@<SCITEGIC>MOL_PROPERTY
Angle
SciTegic.value.DoubleValue
0.941

@<SCITEGIC>MOL_PROPERTY
Pdih
SciTegic.value.DoubleValue
1.335

@<SCITEGIC>MOL_PROPERTY
Idih
SciTegic.value.DoubleValue
0.000

@<SCITEGIC>MOL_PROPERTY
Tether
SciTegic.value.DoubleValue
0.000

@<TRIPOS>MOLECULE
guest-1_confgen4.mol2 : confsearch ligand conformer 460
          17          16           1
SMALL
USER_CHARGES
 
@<TRIPOS>ATOM
       1    N1      21.682021   18.936006   22.040812 N.4        1 MOL1        -0.5891
       2    H1      22.425068   19.219650   22.687536 H          1 MOL1         0.3726
       3    H2      22.139765   18.494411   21.237727 H          1 MOL1         0.3726
       4    H3      21.133359   18.211272   22.510465 H          1 MOL1         0.3726
       5    C1      20.819687   20.111152   21.621946 C.3        1 MOL1         0.0314
       6    H4      21.478534   20.832081   21.130297 H          1 MOL1         0.0999
       7    H5      20.413709   20.582877   22.520811 H          1 MOL1         0.0999
       8    C2      19.670021   19.743509   20.660322 C.3        1 MOL1        -0.1308
       9    H6      19.367031   20.659043   20.135117 H          1 MOL1         0.1025
      10    H7      20.034439   19.057652   19.884095 H          1 MOL1         0.1025
      11    C3      18.415186   19.154709   21.354156 C.3        1 MOL1        -0.1243
      12    H8      17.628053   19.029520   20.597361 H          1 MOL1         0.1025
      13    H9      18.023014   19.877218   22.083680 H          1 MOL1         0.1025
      14    C4      18.648970   17.794896   22.050670 C.3        1 MOL1        -0.2258
      15    H10     19.129248   17.077199   21.372882 H          1 MOL1         0.1036
      16    H11     17.692280   17.361768   22.370517 H          1 MOL1         0.1036
      17    H12     19.268827   17.903884   22.948210 H          1 MOL1         0.1036
@<TRIPOS>BOND
    1     1     2    1
    2     1     3    1
    3     1     4    1
    4     1     5    1
    5     5     6    1
    6     5     7    1
    7     5     8    1
    8     8     9    1
    9     8    10    1
   10     8    11    1
   11    11    12    1
   12    11    13    1
   13    11    14    1
   14    14    15    1
   15    14    16    1
   16    14    17    1
@<TRIPOS>SUBSTRUCTURE
       1 MOL1            1 RESIDUE      1      MOL     
@<SCITEGIC>MOL_PROPERTY
VConf Rank
SciTegic.value.IntegerValue
460

@<SCITEGIC>MOL_PROPERTY
Conf_Id
SciTegic.value.IntegerValue
44

@<SCITEGIC>MOL_PROPERTY
Delta U+W
SciTegic.value.DoubleValue
2.712

@<SCITEGIC>MOL_PROPERTY
U+W
SciTegic.value.DoubleValue
-13.153

@<SCITEGIC>MOL_PROPERTY
Grad RMS
SciTegic.value.DoubleValue
0.000000

@<SCITEGIC>MOL_PROPERTY
U
SciTegic.value.DoubleValue
47.423

@<SCITEGIC>MOL_PROPERTY
W
SciTegic.value.DoubleValue
-60.576

@<SCITEGIC>MOL_PROPERTY
W(PB)
SciTegic.value.DoubleValue
-62.262

@<SCITEGIC>MOL_PROPERTY
W(SA)
SciTegic.value.DoubleValue
1.687

@<SCITEGIC>MOL_PROPERTY
Valence
SciTegic.value.DoubleValue
2.414

@<SCITEGIC>MOL_PROPERTY
Coulomb
SciTegic.value.DoubleValue
44.831

@<SCITEGIC>MOL_PROPERTY
VdW
SciTegic.value.DoubleValue
0.178

@<SCITEGIC>MOL_PROPERTY
VdW6
SciTegic.value.DoubleValue
-3.743

@<SCITEGIC>MOL_PROPERTY
VdW12
SciTegic.value.DoubleValue
3.922

@<SCITEGIC>MOL_PROPERTY
Bond
SciTegic.value.DoubleValue
0.138

@<SCITEGIC>MOL_PROPERTY
Angle
SciTegic.value.DoubleValue
0.941

@<SCITEGIC>MOL_PROPERTY
Pdih
SciTegic.value.DoubleValue
1.335

@<SCITEGIC>MOL_PROPERTY
Idih
SciTegic.value.DoubleValue
0.000

@<SCITEGIC>MOL_PROPERTY
Tether
SciTegic.value.DoubleValue
0.000

@<TRIPOS>MOLECULE
guest-1_confgen4.mol2 : confsearch ligand conformer 461
          17          16           1
SMALL
USER_CHARGES
 
@<TRIPOS>ATOM
       1    N1      18.422067   19.122361   22.902520 N.4        1 MOL1        -0.5891
       2    H1      19.027007   18.347199   23.188209 H          1 MOL1         0.3726
       3    H2      17.565489   18.712352   22.518403 H          1 MOL1         0.3726
       4    H3      18.155309   19.623876   23.755743 H          1 MOL1         0.3726
       5    C1      19.110098   20.033587   21.904453 C.3        1 MOL1         0.0314
       6    H4      19.994812   20.458033   22.386045 H          1 MOL1         0.0999
       7    H5      18.424410   20.853661   21.674564 H          1 MOL1         0.0999
       8    C2      19.518816   19.327378   20.595202 C.3        1 MOL1        -0.1308
       9    H6      18.619285   18.940002   20.098681 H          1 MOL1         0.1025
      10    H7      19.947338   20.073326   19.912755 H          1 MOL1         0.1025
      11    C3      20.534320   18.174281   20.791860 C.3        1 MOL1        -0.1243
      12    H8      20.753196   17.724863   19.813075 H          1 MOL1         0.1025
      13    H9      20.086048   17.375700   21.398470 H          1 MOL1         0.1025
      14    C4      21.859384   18.638196   21.438996 C.3        1 MOL1        -0.2258
      15    H10     22.328046   19.436856   20.849449 H          1 MOL1         0.1036
      16    H11     22.571204   17.804704   21.498764 H          1 MOL1         0.1036
      17    H12     21.701814   19.012388   22.458359 H          1 MOL1         0.1036
@<TRIPOS>BOND
    1     1     2    1
    2     1     3    1
    3     1     4    1
    4     1     5    1
    5     5     6    1
    6     5     7    1
    7     5     8    1
    8     8     9    1
    9     8    10    1
   10     8    11    1
   11    11    12    1
   12    11    13    1
   13    11    14    1
   14    14    15    1
   15    14    16    1
   16    14    17    1
@<TRIPOS>SUBSTRUCTURE
       1 MOL1            1 RESIDUE      1      MOL     
@<SCITEGIC>MOL_PROPERTY
VConf Rank
SciTegic.value.IntegerValue
461

@<SCITEGIC>MOL_PROPERTY
Conf_Id
SciTegic.value.IntegerValue
1

@<SCITEGIC>MOL_PROPERTY
Delta U+W
SciTegic.value.DoubleValue
0.685

@<SCITEGIC>MOL_PROPERTY
U+W
SciTegic.value.DoubleValue
-15.179

@<SCITEGIC>MOL_PROPERTY
Grad RMS
SciTegic.value.DoubleValue
0.000000

@<SCITEGIC>MOL_PROPERTY
U
SciTegic.value.DoubleValue
45.697

@<SCITEGIC>MOL_PROPERTY
W
SciTegic.value.DoubleValue
-60.876

@<SCITEGIC>MOL_PROPERTY
W(PB)
SciTegic.value.DoubleValue
-62.586

@<SCITEGIC>MOL_PROPERTY
W(SA)
SciTegic.value.DoubleValue
1.710

@<SCITEGIC>MOL_PROPERTY
Valence
SciTegic.value.DoubleValue
1.263

@<SCITEGIC>MOL_PROPERTY
Coulomb
SciTegic.value.DoubleValue
44.179

@<SCITEGIC>MOL_PROPERTY
VdW
SciTegic.value.DoubleValue
0.255

@<SCITEGIC>MOL_PROPERTY
VdW6
SciTegic.value.DoubleValue
-3.552

@<SCITEGIC>MOL_PROPERTY
VdW12
SciTegic.value.DoubleValue
3.807

@<SCITEGIC>MOL_PROPERTY
Bond
SciTegic.value.DoubleValue
0.125

@<SCITEGIC>MOL_PROPERTY
Angle
SciTegic.value.DoubleValue
0.616

@<SCITEGIC>MOL_PROPERTY
Pdih
SciTegic.value.DoubleValue
0.521

@<SCITEGIC>MOL_PROPERTY
Idih
SciTegic.value.DoubleValue
0.000

@<SCITEGIC>MOL_PROPERTY
Tether
SciTegic.value.DoubleValue
0.000

@<TRIPOS>MOLECULE
guest-1_confgen4.mol2 : confsearch ligand conformer 462
          17          16           1
SMALL
USER_CHARGES
 
@<TRIPOS>ATOM
       1    N1      18.411781   18.195902   22.578105 N.4        1 MOL1        -0.5891
       2    H1      18.725053   17.410758   23.156712 H          1 MOL1         0.3726
       3    H2      18.366573   17.860611   21.611676 H          1 MOL1         0.3726
       4    H3      17.451828   18.412512   22.864876 H          1 MOL1         0.3726
       5    C1      19.325779   19.398470   22.713372 C.3        1 MOL1         0.0314
       6    H4      19.296148   19.723504   23.756930 H          1 MOL1         0.0999
       7    H5      18.919642   20.204586   22.096902 H          1 MOL1         0.0999
       8    C2      20.787423   19.118611   22.306930 C.3        1 MOL1        -0.1308
       9    H6      21.383900   20.020610   22.497763 H          1 MOL1         0.1025
      10    H7      21.199196   18.336442   22.958391 H          1 MOL1         0.1025
      11    C3      20.960037   18.697790   20.826162 C.3        1 MOL1        -0.1243
      12    H8      20.443653   17.746009   20.641455 H          1 MOL1         0.1025
      13    H9      22.025272   18.506871   20.634514 H          1 MOL1         0.1025
      14    C4      20.454271   19.766366   19.830098 C.3        1 MOL1        -0.2258
      15    H10     20.655598   19.455459   18.796768 H          1 MOL1         0.1036
      16    H11     20.957256   20.728217   19.994160 H          1 MOL1         0.1036
      17    H12     19.372576   19.925321   19.922929 H          1 MOL1         0.1036
@<TRIPOS>BOND
    1     1     2    1
    2     1     3    1
    3     1     4    1
    4     1     5    1
    5     5     6    1
    6     5     7    1
    7     5     8    1
    8     8     9    1
    9     8    10    1
   10     8    11    1
   11    11    12    1
   12    11    13    1
   13    11    14    1
   14    14    15    1
   15    14    16    1
   16    14    17    1
@<TRIPOS>SUBSTRUCTURE
       1 MOL1            1 RESIDUE      1      MOL     
@<SCITEGIC>MOL_PROPERTY
VConf Rank
SciTegic.value.IntegerValue
462

@<SCITEGIC>MOL_PROPERTY
Conf_Id
SciTegic.value.IntegerValue
43

@<SCITEGIC>MOL_PROPERTY
Delta U+W
SciTegic.value.DoubleValue
0.642

@<SCITEGIC>MOL_PROPERTY
U+W
SciTegic.value.DoubleValue
-15.222

@<SCITEGIC>MOL_PROPERTY
Grad RMS
SciTegic.value.DoubleValue
0.000000

@<SCITEGIC>MOL_PROPERTY
U
SciTegic.value.DoubleValue
45.697

@<SCITEGIC>MOL_PROPERTY
W
SciTegic.value.DoubleValue
-60.919

@<SCITEGIC>MOL_PROPERTY
W(PB)
SciTegic.value.DoubleValue
-62.631

@<SCITEGIC>MOL_PROPERTY
W(SA)
SciTegic.value.DoubleValue
1.712

@<SCITEGIC>MOL_PROPERTY
Valence
SciTegic.value.DoubleValue
1.262

@<SCITEGIC>MOL_PROPERTY
Coulomb
SciTegic.value.DoubleValue
44.179

@<SCITEGIC>MOL_PROPERTY
VdW
SciTegic.value.DoubleValue
0.255

@<SCITEGIC>MOL_PROPERTY
VdW6
SciTegic.value.DoubleValue
-3.552

@<SCITEGIC>MOL_PROPERTY
VdW12
SciTegic.value.DoubleValue
3.807

@<SCITEGIC>MOL_PROPERTY
Bond
SciTegic.value.DoubleValue
0.125

@<SCITEGIC>MOL_PROPERTY
Angle
SciTegic.value.DoubleValue
0.616

@<SCITEGIC>MOL_PROPERTY
Pdih
SciTegic.value.DoubleValue
0.521

@<SCITEGIC>MOL_PROPERTY
Idih
SciTegic.value.DoubleValue
0.000

@<SCITEGIC>MOL_PROPERTY
Tether
SciTegic.value.DoubleValue
0.000

@<TRIPOS>MOLECULE
guest-1_confgen4.mol2 : confsearch ligand conformer 463
          17          16           1
SMALL
USER_CHARGES
 
@<TRIPOS>ATOM
       1    N1      21.268627   21.089006   22.470369 N.4        1 MOL1        -0.5891
       2    H1      21.985956   20.571428   22.987331 H          1 MOL1         0.3726
       3    H2      20.577819   21.410808   23.155150 H          1 MOL1         0.3726
       4    H3      21.722701   21.926462   22.091696 H          1 MOL1         0.3726
       5    C1      20.637214   20.247975   21.378884 C.3        1 MOL1         0.0314
       6    H4      21.422663   19.967544   20.671811 H          1 MOL1         0.0999
       7    H5      19.908486   20.870165   20.852235 H          1 MOL1         0.0999
       8    C2      19.945381   18.980615   21.913136 C.3        1 MOL1        -0.1308
       9    H6      20.676732   18.365863   22.454613 H          1 MOL1         0.1025
      10    H7      19.167675   19.265381   22.634296 H          1 MOL1         0.1025
      11    C3      19.316352   18.153606   20.770376 C.3        1 MOL1        -0.1243
      12    H8      20.093790   17.871075   20.046434 H          1 MOL1         0.1025
      13    H9      18.586527   18.769459   20.225944 H          1 MOL1         0.1025
      14    C4      18.620521   16.880585   21.298764 C.3        1 MOL1        -0.2258
      15    H10     18.180590   16.307571   20.472227 H          1 MOL1         0.1036
      16    H11     17.814106   17.132774   21.999694 H          1 MOL1         0.1036
      17    H12     19.333266   16.227330   21.818821 H          1 MOL1         0.1036
@<TRIPOS>BOND
    1     1     2    1
    2     1     3    1
    3     1     4    1
    4     1     5    1
    5     5     6    1
    6     5     7    1
    7     5     8    1
    8     8     9    1
    9     8    10    1
   10     8    11    1
   11    11    12    1
   12    11    13    1
   13    11    14    1
   14    14    15    1
   15    14    16    1
   16    14    17    1
@<TRIPOS>SUBSTRUCTURE
       1 MOL1            1 RESIDUE      1      MOL     
@<SCITEGIC>MOL_PROPERTY
VConf Rank
SciTegic.value.IntegerValue
463

@<SCITEGIC>MOL_PROPERTY
Conf_Id
SciTegic.value.IntegerValue
7

@<SCITEGIC>MOL_PROPERTY
Delta U+W
SciTegic.value.DoubleValue
0.000

@<SCITEGIC>MOL_PROPERTY
U+W
SciTegic.value.DoubleValue
-15.865

@<SCITEGIC>MOL_PROPERTY
Grad RMS
SciTegic.value.DoubleValue
0.000000

@<SCITEGIC>MOL_PROPERTY
U
SciTegic.value.DoubleValue
44.664

@<SCITEGIC>MOL_PROPERTY
W
SciTegic.value.DoubleValue
-60.529

@<SCITEGIC>MOL_PROPERTY
W(PB)
SciTegic.value.DoubleValue
-62.309

@<SCITEGIC>MOL_PROPERTY
W(SA)
SciTegic.value.DoubleValue
1.780

@<SCITEGIC>MOL_PROPERTY
Valence
SciTegic.value.DoubleValue
0.872

@<SCITEGIC>MOL_PROPERTY
Coulomb
SciTegic.value.DoubleValue
43.648

@<SCITEGIC>MOL_PROPERTY
VdW
SciTegic.value.DoubleValue
0.144

@<SCITEGIC>MOL_PROPERTY
VdW6
SciTegic.value.DoubleValue
-2.370

@<SCITEGIC>MOL_PROPERTY
VdW12
SciTegic.value.DoubleValue
2.515

@<SCITEGIC>MOL_PROPERTY
Bond
SciTegic.value.DoubleValue
0.080

@<SCITEGIC>MOL_PROPERTY
Angle
SciTegic.value.DoubleValue
0.376

@<SCITEGIC>MOL_PROPERTY
Pdih
SciTegic.value.DoubleValue
0.416

@<SCITEGIC>MOL_PROPERTY
Idih
SciTegic.value.DoubleValue
0.000

@<SCITEGIC>MOL_PROPERTY
Tether
SciTegic.value.DoubleValue
0.000

@<TRIPOS>MOLECULE
guest-1_confgen4.mol2 : confsearch ligand conformer 464
          17          16           1
SMALL
USER_CHARGES
 
@<TRIPOS>ATOM
       1    N1      18.203530   20.632627   22.321033 N.4        1 MOL1        -0.5891
       2    H1      17.484268   20.673332   21.592573 H          1 MOL1         0.3726
       3    H2      18.749758   21.496708   22.252872 H          1 MOL1         0.3726
       4    H3      17.714867   20.661148   23.221721 H          1 MOL1         0.3726
       5    C1      19.074312   19.398866   22.190925 C.3        1 MOL1         0.0314
       6    H4      18.433848   18.519851   22.302936 H          1 MOL1         0.0999
       7    H5      19.793028   19.406713   23.014468 H          1 MOL1         0.0999
       8    C2      19.824442   19.324625   20.847142 C.3        1 MOL1        -0.1308
       9    H6      19.095960   19.357774   20.026111 H          1 MOL1         0.1025
      10    H7      20.466431   20.208320   20.733905 H          1 MOL1         0.1025
      11    C3      20.678369   18.042354   20.710772 C.3        1 MOL1        -0.1243
      12    H8      21.119718   18.012750   19.704633 H          1 MOL1         0.1025
      13    H9      20.032121   17.156820   20.790622 H          1 MOL1         0.1025
      14    C4      21.810044   17.955553   21.760407 C.3        1 MOL1        -0.2258
      15    H10     22.467735   18.832812   21.705765 H          1 MOL1         0.1036
      16    H11     22.426676   17.063757   21.588728 H          1 MOL1         0.1036
      17    H12     21.410274   17.889762   22.780184 H          1 MOL1         0.1036
@<TRIPOS>BOND
    1     1     2    1
    2     1     3    1
    3     1     4    1
    4     1     5    1
    5     5     6    1
    6     5     7    1
    7     5     8    1
    8     8     9    1
    9     8    10    1
   10     8    11    1
   11    11    12    1
   12    11    13    1
   13    11    14    1
   14    14    15    1
   15    14    16    1
   16    14    17    1
@<TRIPOS>SUBSTRUCTURE
       1 MOL1            1 RESIDUE      1      MOL     
@<SCITEGIC>MOL_PROPERTY
VConf Rank
SciTegic.value.IntegerValue
464

@<SCITEGIC>MOL_PROPERTY
Conf_Id
SciTegic.value.IntegerValue
36

@<SCITEGIC>MOL_PROPERTY
Delta U+W
SciTegic.value.DoubleValue
0.275

@<SCITEGIC>MOL_PROPERTY
U+W
SciTegic.value.DoubleValue
-15.590

@<SCITEGIC>MOL_PROPERTY
Grad RMS
SciTegic.value.DoubleValue
0.000000

@<SCITEGIC>MOL_PROPERTY
U
SciTegic.value.DoubleValue
45.174

@<SCITEGIC>MOL_PROPERTY
W
SciTegic.value.DoubleValue
-60.765

@<SCITEGIC>MOL_PROPERTY
W(PB)
SciTegic.value.DoubleValue
-62.518

@<SCITEGIC>MOL_PROPERTY
W(SA)
SciTegic.value.DoubleValue
1.754

@<SCITEGIC>MOL_PROPERTY
Valence
SciTegic.value.DoubleValue
1.161

@<SCITEGIC>MOL_PROPERTY
Coulomb
SciTegic.value.DoubleValue
43.789

@<SCITEGIC>MOL_PROPERTY
VdW
SciTegic.value.DoubleValue
0.224

@<SCITEGIC>MOL_PROPERTY
VdW6
SciTegic.value.DoubleValue
-2.897

@<SCITEGIC>MOL_PROPERTY
VdW12
SciTegic.value.DoubleValue
3.121

@<SCITEGIC>MOL_PROPERTY
Bond
SciTegic.value.DoubleValue
0.100

@<SCITEGIC>MOL_PROPERTY
Angle
SciTegic.value.DoubleValue
0.500

@<SCITEGIC>MOL_PROPERTY
Pdih
SciTegic.value.DoubleValue
0.561

@<SCITEGIC>MOL_PROPERTY
Idih
SciTegic.value.DoubleValue
0.000

@<SCITEGIC>MOL_PROPERTY
Tether
SciTegic.value.DoubleValue
0.000

@<TRIPOS>MOLECULE
guest-1_confgen4.mol2 : confsearch ligand conformer 465
          17          16           1
SMALL
USER_CHARGES
 
@<TRIPOS>ATOM
       1    N1      20.214323   20.752184   21.087422 N.4        1 MOL1        -0.5891
       2    H1      20.812347   20.497633   21.877622 H          1 MOL1         0.3726
       3    H2      19.424832   21.283971   21.466085 H          1 MOL1         0.3726
       4    H3      20.750744   21.396199   20.497236 H          1 MOL1         0.3726
       5    C1      19.752762   19.531138   20.315388 C.3        1 MOL1         0.0314
       6    H4      20.628657   19.043563   19.879061 H          1 MOL1         0.0999
       7    H5      19.122876   19.889683   19.496714 H          1 MOL1         0.0999
       8    C2      18.953300   18.513643   21.156326 C.3        1 MOL1        -0.1308
       9    H6      18.226397   19.038825   21.789985 H          1 MOL1         0.1025
      10    H7      18.361512   17.899236   20.464850 H          1 MOL1         0.1025
      11    C3      19.825974   17.560917   22.012748 C.3        1 MOL1        -0.1243
      12    H8      20.505460   16.995140   21.359895 H          1 MOL1         0.1025
      13    H9      19.167257   16.817299   22.482974 H          1 MOL1         0.1025
      14    C4      20.642885   18.264824   23.120021 C.3        1 MOL1        -0.2258
      15    H10     21.458736   18.863802   22.698965 H          1 MOL1         0.1036
      16    H11     21.099633   17.521698   23.786580 H          1 MOL1         0.1036
      17    H12     20.005503   18.914960   23.733389 H          1 MOL1         0.1036
@<TRIPOS>BOND
    1     1     2    1
    2     1     3    1
    3     1     4    1
    4     1     5    1
    5     5     6    1
    6     5     7    1
    7     5     8    1
    8     8     9    1
    9     8    10    1
   10     8    11    1
   11    11    12    1
   12    11    13    1
   13    11    14    1
   14    14    15    1
   15    14    16    1
   16    14    17    1
@<TRIPOS>SUBSTRUCTURE
       1 MOL1            1 RESIDUE      1      MOL     
@<SCITEGIC>MOL_PROPERTY
VConf Rank
SciTegic.value.IntegerValue
465

@<SCITEGIC>MOL_PROPERTY
Conf_Id
SciTegic.value.IntegerValue
19

@<SCITEGIC>MOL_PROPERTY
Delta U+W
SciTegic.value.DoubleValue
2.662

@<SCITEGIC>MOL_PROPERTY
U+W
SciTegic.value.DoubleValue
-13.203

@<SCITEGIC>MOL_PROPERTY
Grad RMS
SciTegic.value.DoubleValue
0.000000

@<SCITEGIC>MOL_PROPERTY
U
SciTegic.value.DoubleValue
47.423

@<SCITEGIC>MOL_PROPERTY
W
SciTegic.value.DoubleValue
-60.626

@<SCITEGIC>MOL_PROPERTY
W(PB)
SciTegic.value.DoubleValue
-62.328

@<SCITEGIC>MOL_PROPERTY
W(SA)
SciTegic.value.DoubleValue
1.702

@<SCITEGIC>MOL_PROPERTY
Valence
SciTegic.value.DoubleValue
2.414

@<SCITEGIC>MOL_PROPERTY
Coulomb
SciTegic.value.DoubleValue
44.831

@<SCITEGIC>MOL_PROPERTY
VdW
SciTegic.value.DoubleValue
0.178

@<SCITEGIC>MOL_PROPERTY
VdW6
SciTegic.value.DoubleValue
-3.743

@<SCITEGIC>MOL_PROPERTY
VdW12
SciTegic.value.DoubleValue
3.921

@<SCITEGIC>MOL_PROPERTY
Bond
SciTegic.value.DoubleValue
0.138

@<SCITEGIC>MOL_PROPERTY
Angle
SciTegic.value.DoubleValue
0.941

@<SCITEGIC>MOL_PROPERTY
Pdih
SciTegic.value.DoubleValue
1.335

@<SCITEGIC>MOL_PROPERTY
Idih
SciTegic.value.DoubleValue
0.000

@<SCITEGIC>MOL_PROPERTY
Tether
SciTegic.value.DoubleValue
0.000

@<TRIPOS>MOLECULE
guest-1_confgen4.mol2 : confsearch ligand conformer 466
          17          16           1
SMALL
USER_CHARGES
 
@<TRIPOS>ATOM
       1    N1      18.839541   17.660147   22.238649 N.4        1 MOL1        -0.5891
       2    H1      18.785730   16.855140   22.871019 H          1 MOL1         0.3726
       3    H2      18.028922   17.602613   21.614897 H          1 MOL1         0.3726
       4    H3      18.720943   18.500955   22.809456 H          1 MOL1         0.3726
       5    C1      20.144400   17.684476   21.466126 C.3        1 MOL1         0.0314
       6    H4      20.189984   16.758672   20.886172 H          1 MOL1         0.0999
       7    H5      20.972038   17.676675   22.180448 H          1 MOL1         0.0999
       8    C2      20.292351   18.885495   20.508381 C.3        1 MOL1        -0.1308
       9    H6      21.042792   18.620105   19.751908 H          1 MOL1         0.1025
      10    H7      19.354996   19.045782   19.959378 H          1 MOL1         0.1025
      11    C3      20.748587   20.199965   21.191551 C.3        1 MOL1        -0.1243
      12    H8      20.922557   20.953503   20.410587 H          1 MOL1         0.1025
      13    H9      21.718666   20.043198   21.683884 H          1 MOL1         0.1025
      14    C4      19.739591   20.773161   22.212459 C.3        1 MOL1        -0.2258
      15    H10     18.734643   20.853052   21.777891 H          1 MOL1         0.1036
      16    H11     20.046893   21.778859   22.527567 H          1 MOL1         0.1036
      17    H12     19.686579   20.155047   23.116231 H          1 MOL1         0.1036
@<TRIPOS>BOND
    1     1     2    1
    2     1     3    1
    3     1     4    1
    4     1     5    1
    5     5     6    1
    6     5     7    1
    7     5     8    1
    8     8     9    1
    9     8    10    1
   10     8    11    1
   11    11    12    1
   12    11    13    1
   13    11    14    1
   14    14    15    1
   15    14    16    1
   16    14    17    1
@<TRIPOS>SUBSTRUCTURE
       1 MOL1            1 RESIDUE      1      MOL     
@<SCITEGIC>MOL_PROPERTY
VConf Rank
SciTegic.value.IntegerValue
466

@<SCITEGIC>MOL_PROPERTY
Conf_Id
SciTegic.value.IntegerValue
44

@<SCITEGIC>MOL_PROPERTY
Delta U+W
SciTegic.value.DoubleValue
2.712

@<SCITEGIC>MOL_PROPERTY
U+W
SciTegic.value.DoubleValue
-13.153

@<SCITEGIC>MOL_PROPERTY
Grad RMS
SciTegic.value.DoubleValue
0.000000

@<SCITEGIC>MOL_PROPERTY
U
SciTegic.value.DoubleValue
47.423

@<SCITEGIC>MOL_PROPERTY
W
SciTegic.value.DoubleValue
-60.576

@<SCITEGIC>MOL_PROPERTY
W(PB)
SciTegic.value.DoubleValue
-62.262

@<SCITEGIC>MOL_PROPERTY
W(SA)
SciTegic.value.DoubleValue
1.687

@<SCITEGIC>MOL_PROPERTY
Valence
SciTegic.value.DoubleValue
2.414

@<SCITEGIC>MOL_PROPERTY
Coulomb
SciTegic.value.DoubleValue
44.831

@<SCITEGIC>MOL_PROPERTY
VdW
SciTegic.value.DoubleValue
0.178

@<SCITEGIC>MOL_PROPERTY
VdW6
SciTegic.value.DoubleValue
-3.743

@<SCITEGIC>MOL_PROPERTY
VdW12
SciTegic.value.DoubleValue
3.922

@<SCITEGIC>MOL_PROPERTY
Bond
SciTegic.value.DoubleValue
0.138

@<SCITEGIC>MOL_PROPERTY
Angle
SciTegic.value.DoubleValue
0.941

@<SCITEGIC>MOL_PROPERTY
Pdih
SciTegic.value.DoubleValue
1.335

@<SCITEGIC>MOL_PROPERTY
Idih
SciTegic.value.DoubleValue
0.000

@<SCITEGIC>MOL_PROPERTY
Tether
SciTegic.value.DoubleValue
0.000

@<TRIPOS>MOLECULE
guest-1_confgen4.mol2 : confsearch ligand conformer 467
          17          16           1
SMALL
USER_CHARGES
 
@<TRIPOS>ATOM
       1    N1      18.787270   20.345279   20.620091 N.4        1 MOL1        -0.5891
       2    H1      19.241435   20.853574   21.384170 H          1 MOL1         0.3726
       3    H2      17.798253   20.246324   20.867946 H          1 MOL1         0.3726
       4    H3      18.827810   20.949494   19.793079 H          1 MOL1         0.3726
       5    C1      19.445007   19.001907   20.369909 C.3        1 MOL1         0.0314
       6    H4      20.484390   19.181038   20.082855 H          1 MOL1         0.0999
       7    H5      18.936162   18.534736   19.522344 H          1 MOL1         0.0999
       8    C2      19.396930   18.049511   21.582571 C.3        1 MOL1        -0.1308
       9    H6      18.348974   17.843480   21.837695 H          1 MOL1         0.1025
      10    H7      19.835372   17.086144   21.290170 H          1 MOL1         0.1025
      11    C3      20.134882   18.585832   22.834507 C.3        1 MOL1        -0.1243
      12    H8      20.034826   17.851286   23.645886 H          1 MOL1         0.1025
      13    H9      19.649673   19.503138   23.194752 H          1 MOL1         0.1025
      14    C4      21.636267   18.855174   22.583321 C.3        1 MOL1        -0.2258
      15    H10     22.144417   17.951305   22.222943 H          1 MOL1         0.1036
      16    H11     22.131432   19.170048   23.511025 H          1 MOL1         0.1036
      17    H12     21.785542   19.650492   21.842284 H          1 MOL1         0.1036
@<TRIPOS>BOND
    1     1     2    1
    2     1     3    1
    3     1     4    1
    4     1     5    1
    5     5     6    1
    6     5     7    1
    7     5     8    1
    8     8     9    1
    9     8    10    1
   10     8    11    1
   11    11    12    1
   12    11    13    1
   13    11    14    1
   14    14    15    1
   15    14    16    1
   16    14    17    1
@<TRIPOS>SUBSTRUCTURE
       1 MOL1            1 RESIDUE      1      MOL     
@<SCITEGIC>MOL_PROPERTY
VConf Rank
SciTegic.value.IntegerValue
467

@<SCITEGIC>MOL_PROPERTY
Conf_Id
SciTegic.value.IntegerValue
1

@<SCITEGIC>MOL_PROPERTY
Delta U+W
SciTegic.value.DoubleValue
0.685

@<SCITEGIC>MOL_PROPERTY
U+W
SciTegic.value.DoubleValue
-15.179

@<SCITEGIC>MOL_PROPERTY
Grad RMS
SciTegic.value.DoubleValue
0.000000

@<SCITEGIC>MOL_PROPERTY
U
SciTegic.value.DoubleValue
45.697

@<SCITEGIC>MOL_PROPERTY
W
SciTegic.value.DoubleValue
-60.876

@<SCITEGIC>MOL_PROPERTY
W(PB)
SciTegic.value.DoubleValue
-62.586

@<SCITEGIC>MOL_PROPERTY
W(SA)
SciTegic.value.DoubleValue
1.710

@<SCITEGIC>MOL_PROPERTY
Valence
SciTegic.value.DoubleValue
1.263

@<SCITEGIC>MOL_PROPERTY
Coulomb
SciTegic.value.DoubleValue
44.179

@<SCITEGIC>MOL_PROPERTY
VdW
SciTegic.value.DoubleValue
0.255

@<SCITEGIC>MOL_PROPERTY
VdW6
SciTegic.value.DoubleValue
-3.552

@<SCITEGIC>MOL_PROPERTY
VdW12
SciTegic.value.DoubleValue
3.807

@<SCITEGIC>MOL_PROPERTY
Bond
SciTegic.value.DoubleValue
0.125

@<SCITEGIC>MOL_PROPERTY
Angle
SciTegic.value.DoubleValue
0.616

@<SCITEGIC>MOL_PROPERTY
Pdih
SciTegic.value.DoubleValue
0.521

@<SCITEGIC>MOL_PROPERTY
Idih
SciTegic.value.DoubleValue
0.000

@<SCITEGIC>MOL_PROPERTY
Tether
SciTegic.value.DoubleValue
0.000

@<TRIPOS>MOLECULE
guest-1_confgen4.mol2 : confsearch ligand conformer 468
          17          16           1
SMALL
USER_CHARGES
 
@<TRIPOS>ATOM
       1    N1      20.387809   19.749358   23.392092 N.4        1 MOL1        -0.5891
       2    H1      20.831297   20.670317   23.324784 H          1 MOL1         0.3726
       3    H2      21.099561   19.052562   23.154745 H          1 MOL1         0.3726
       4    H3      20.146399   19.606630   24.378001 H          1 MOL1         0.3726
       5    C1      19.172103   19.639676   22.492155 C.3        1 MOL1         0.0314
       6    H4      18.443139   20.383496   22.825144 H          1 MOL1         0.0999
       7    H5      18.732733   18.648954   22.634385 H          1 MOL1         0.0999
       8    C2      19.481834   19.861697   20.997266 C.3        1 MOL1        -0.1308
       9    H6      18.539466   19.828181   20.434573 H          1 MOL1         0.1025
      10    H7      19.884441   20.873904   20.859095 H          1 MOL1         0.1025
      11    C3      20.469506   18.829482   20.398439 C.3        1 MOL1        -0.1243
      12    H8      21.448110   18.913899   20.890234 H          1 MOL1         0.1025
      13    H9      20.639629   19.074966   19.340753 H          1 MOL1         0.1025
      14    C4      19.959492   17.373698   20.500303 C.3        1 MOL1        -0.2258
      15    H10     20.658030   16.685585   20.006831 H          1 MOL1         0.1036
      16    H11     18.981470   17.263297   20.014142 H          1 MOL1         0.1036
      17    H12     19.860968   17.052338   21.544798 H          1 MOL1         0.1036
@<TRIPOS>BOND
    1     1     2    1
    2     1     3    1
    3     1     4    1
    4     1     5    1
    5     5     6    1
    6     5     7    1
    7     5     8    1
    8     8     9    1
    9     8    10    1
   10     8    11    1
   11    11    12    1
   12    11    13    1
   13    11    14    1
   14    14    15    1
   15    14    16    1
   16    14    17    1
@<TRIPOS>SUBSTRUCTURE
       1 MOL1            1 RESIDUE      1      MOL     
@<SCITEGIC>MOL_PROPERTY
VConf Rank
SciTegic.value.IntegerValue
468

@<SCITEGIC>MOL_PROPERTY
Conf_Id
SciTegic.value.IntegerValue
43

@<SCITEGIC>MOL_PROPERTY
Delta U+W
SciTegic.value.DoubleValue
0.642

@<SCITEGIC>MOL_PROPERTY
U+W
SciTegic.value.DoubleValue
-15.222

@<SCITEGIC>MOL_PROPERTY
Grad RMS
SciTegic.value.DoubleValue
0.000000

@<SCITEGIC>MOL_PROPERTY
U
SciTegic.value.DoubleValue
45.697

@<SCITEGIC>MOL_PROPERTY
W
SciTegic.value.DoubleValue
-60.919

@<SCITEGIC>MOL_PROPERTY
W(PB)
SciTegic.value.DoubleValue
-62.631

@<SCITEGIC>MOL_PROPERTY
W(SA)
SciTegic.value.DoubleValue
1.712

@<SCITEGIC>MOL_PROPERTY
Valence
SciTegic.value.DoubleValue
1.262

@<SCITEGIC>MOL_PROPERTY
Coulomb
SciTegic.value.DoubleValue
44.179

@<SCITEGIC>MOL_PROPERTY
VdW
SciTegic.value.DoubleValue
0.255

@<SCITEGIC>MOL_PROPERTY
VdW6
SciTegic.value.DoubleValue
-3.552

@<SCITEGIC>MOL_PROPERTY
VdW12
SciTegic.value.DoubleValue
3.807

@<SCITEGIC>MOL_PROPERTY
Bond
SciTegic.value.DoubleValue
0.125

@<SCITEGIC>MOL_PROPERTY
Angle
SciTegic.value.DoubleValue
0.616

@<SCITEGIC>MOL_PROPERTY
Pdih
SciTegic.value.DoubleValue
0.521

@<SCITEGIC>MOL_PROPERTY
Idih
SciTegic.value.DoubleValue
0.000

@<SCITEGIC>MOL_PROPERTY
Tether
SciTegic.value.DoubleValue
0.000

@<TRIPOS>MOLECULE
guest-1_confgen4.mol2 : confsearch ligand conformer 469
          17          16           1
SMALL
USER_CHARGES
 
@<TRIPOS>ATOM
       1    N1      20.021366   17.402173   19.644942 N.4        1 MOL1        -0.5891
       2    H1      19.011903   17.357222   19.475648 H          1 MOL1         0.3726
       3    H2      20.273019   16.568984   20.185465 H          1 MOL1         0.3726
       4    H3      20.479100   17.312459   18.732068 H          1 MOL1         0.3726
       5    C1      20.422098   18.680978   20.353057 C.3        1 MOL1         0.0314
       6    H4      20.152882   19.522282   19.708655 H          1 MOL1         0.0999
       7    H5      21.509002   18.674694   20.471900 H          1 MOL1         0.0999
       8    C2      19.752099   18.848088   21.729079 C.3        1 MOL1        -0.1308
       9    H6      18.660708   18.838406   21.607577 H          1 MOL1         0.1025
      10    H7      20.012279   17.993821   22.368239 H          1 MOL1         0.1025
      11    C3      20.186685   20.161701   22.415430 C.3        1 MOL1        -0.1243
      12    H8      19.929502   21.016990   21.774599 H          1 MOL1         0.1025
      13    H9      21.279404   20.173412   22.534402 H          1 MOL1         0.1025
      14    C4      19.518474   20.336232   23.796367 C.3        1 MOL1        -0.2258
      15    H10     19.839873   21.274472   24.266958 H          1 MOL1         0.1036
      16    H11     19.785288   19.512778   24.471601 H          1 MOL1         0.1036
      17    H12     18.424724   20.362953   23.705797 H          1 MOL1         0.1036
@<TRIPOS>BOND
    1     1     2    1
    2     1     3    1
    3     1     4    1
    4     1     5    1
    5     5     6    1
    6     5     7    1
    7     5     8    1
    8     8     9    1
    9     8    10    1
   10     8    11    1
   11    11    12    1
   12    11    13    1
   13    11    14    1
   14    14    15    1
   15    14    16    1
   16    14    17    1
@<TRIPOS>SUBSTRUCTURE
       1 MOL1            1 RESIDUE      1      MOL     
@<SCITEGIC>MOL_PROPERTY
VConf Rank
SciTegic.value.IntegerValue
469

@<SCITEGIC>MOL_PROPERTY
Conf_Id
SciTegic.value.IntegerValue
7

@<SCITEGIC>MOL_PROPERTY
Delta U+W
SciTegic.value.DoubleValue
0.000

@<SCITEGIC>MOL_PROPERTY
U+W
SciTegic.value.DoubleValue
-15.865

@<SCITEGIC>MOL_PROPERTY
Grad RMS
SciTegic.value.DoubleValue
0.000000

@<SCITEGIC>MOL_PROPERTY
U
SciTegic.value.DoubleValue
44.664

@<SCITEGIC>MOL_PROPERTY
W
SciTegic.value.DoubleValue
-60.529

@<SCITEGIC>MOL_PROPERTY
W(PB)
SciTegic.value.DoubleValue
-62.309

@<SCITEGIC>MOL_PROPERTY
W(SA)
SciTegic.value.DoubleValue
1.780

@<SCITEGIC>MOL_PROPERTY
Valence
SciTegic.value.DoubleValue
0.872

@<SCITEGIC>MOL_PROPERTY
Coulomb
SciTegic.value.DoubleValue
43.648

@<SCITEGIC>MOL_PROPERTY
VdW
SciTegic.value.DoubleValue
0.144

@<SCITEGIC>MOL_PROPERTY
VdW6
SciTegic.value.DoubleValue
-2.370

@<SCITEGIC>MOL_PROPERTY
VdW12
SciTegic.value.DoubleValue
2.515

@<SCITEGIC>MOL_PROPERTY
Bond
SciTegic.value.DoubleValue
0.080

@<SCITEGIC>MOL_PROPERTY
Angle
SciTegic.value.DoubleValue
0.376

@<SCITEGIC>MOL_PROPERTY
Pdih
SciTegic.value.DoubleValue
0.416

@<SCITEGIC>MOL_PROPERTY
Idih
SciTegic.value.DoubleValue
0.000

@<SCITEGIC>MOL_PROPERTY
Tether
SciTegic.value.DoubleValue
0.000

@<TRIPOS>MOLECULE
guest-1_confgen4.mol2 : confsearch ligand conformer 470
          17          16           1
SMALL
USER_CHARGES
 
@<TRIPOS>ATOM
       1    N1      17.593027   19.381273   21.080228 N.4        1 MOL1        -0.5891
       2    H1      17.078865   18.554501   21.399185 H          1 MOL1         0.3726
       3    H2      17.675275   19.309722   20.061522 H          1 MOL1         0.3726
       4    H3      16.997589   20.193091   21.273228 H          1 MOL1         0.3726
       5    C1      18.946390   19.502389   21.751865 C.3        1 MOL1         0.0314
       6    H4      18.781711   19.604704   22.827886 H          1 MOL1         0.0999
       7    H5      19.420684   20.417900   21.388929 H          1 MOL1         0.0999
       8    C2      19.867803   18.297405   21.481734 C.3        1 MOL1        -0.1308
       9    H6      19.365472   17.378907   21.813248 H          1 MOL1         0.1025
      10    H7      20.031836   18.193649   20.400894 H          1 MOL1         0.1025
      11    C3      21.230295   18.414641   22.204146 C.3        1 MOL1        -0.1243
      12    H8      21.803794   17.492180   22.036379 H          1 MOL1         0.1025
      13    H9      21.069306   18.485089   23.289181 H          1 MOL1         0.1025
      14    C4      22.066882   19.622712   21.723893 C.3        1 MOL1        -0.2258
      15    H10     22.237211   19.579570   20.640264 H          1 MOL1         0.1036
      16    H11     23.047708   19.631967   22.216743 H          1 MOL1         0.1036
      17    H12     21.571533   20.574075   21.955474 H          1 MOL1         0.1036
@<TRIPOS>BOND
    1     1     2    1
    2     1     3    1
    3     1     4    1
    4     1     5    1
    5     5     6    1
    6     5     7    1
    7     5     8    1
    8     8     9    1
    9     8    10    1
   10     8    11    1
   11    11    12    1
   12    11    13    1
   13    11    14    1
   14    14    15    1
   15    14    16    1
   16    14    17    1
@<TRIPOS>SUBSTRUCTURE
       1 MOL1            1 RESIDUE      1      MOL     
@<SCITEGIC>MOL_PROPERTY
VConf Rank
SciTegic.value.IntegerValue
470

@<SCITEGIC>MOL_PROPERTY
Conf_Id
SciTegic.value.IntegerValue
36

@<SCITEGIC>MOL_PROPERTY
Delta U+W
SciTegic.value.DoubleValue
0.275

@<SCITEGIC>MOL_PROPERTY
U+W
SciTegic.value.DoubleValue
-15.590

@<SCITEGIC>MOL_PROPERTY
Grad RMS
SciTegic.value.DoubleValue
0.000000

@<SCITEGIC>MOL_PROPERTY
U
SciTegic.value.DoubleValue
45.174

@<SCITEGIC>MOL_PROPERTY
W
SciTegic.value.DoubleValue
-60.765

@<SCITEGIC>MOL_PROPERTY
W(PB)
SciTegic.value.DoubleValue
-62.518

@<SCITEGIC>MOL_PROPERTY
W(SA)
SciTegic.value.DoubleValue
1.754

@<SCITEGIC>MOL_PROPERTY
Valence
SciTegic.value.DoubleValue
1.161

@<SCITEGIC>MOL_PROPERTY
Coulomb
SciTegic.value.DoubleValue
43.789

@<SCITEGIC>MOL_PROPERTY
VdW
SciTegic.value.DoubleValue
0.224

@<SCITEGIC>MOL_PROPERTY
VdW6
SciTegic.value.DoubleValue
-2.897

@<SCITEGIC>MOL_PROPERTY
VdW12
SciTegic.value.DoubleValue
3.121

@<SCITEGIC>MOL_PROPERTY
Bond
SciTegic.value.DoubleValue
0.100

@<SCITEGIC>MOL_PROPERTY
Angle
SciTegic.value.DoubleValue
0.500

@<SCITEGIC>MOL_PROPERTY
Pdih
SciTegic.value.DoubleValue
0.561

@<SCITEGIC>MOL_PROPERTY
Idih
SciTegic.value.DoubleValue
0.000

@<SCITEGIC>MOL_PROPERTY
Tether
SciTegic.value.DoubleValue
0.000

@<TRIPOS>MOLECULE
guest-1_confgen4.mol2 : confsearch ligand conformer 471
          17          16           1
SMALL
USER_CHARGES
 
@<TRIPOS>ATOM
       1    N1      19.052422   17.849940   20.428285 N.4        1 MOL1        -0.5891
       2    H1      19.904231   17.416602   20.793640 H          1 MOL1         0.3726
       3    H2      19.267886   18.190933   19.486595 H          1 MOL1         0.3726
       4    H3      18.355660   17.105502   20.322653 H          1 MOL1         0.3726
       5    C1      18.556243   18.963122   21.330872 C.3        1 MOL1         0.0314
       6    H4      18.278354   18.531015   22.295944 H          1 MOL1         0.0999
       7    H5      17.651959   19.369578   20.869786 H          1 MOL1         0.0999
       8    C2      19.570029   20.107121   21.543278 C.3        1 MOL1        -0.1308
       9    H6      20.037846   20.376746   20.587151 H          1 MOL1         0.1025
      10    H7      19.010195   20.995117   21.865608 H          1 MOL1         0.1025
      11    C3      20.655092   19.814417   22.610830 C.3        1 MOL1        -0.1243
      12    H8      20.175722   19.608091   23.578123 H          1 MOL1         0.1025
      13    H9      21.252328   20.725581   22.756017 H          1 MOL1         0.1025
      14    C4      21.609052   18.652908   22.250637 C.3        1 MOL1        -0.2258
      15    H10     21.098891   17.683803   22.298039 H          1 MOL1         0.1036
      16    H11     22.444510   18.612274   22.961633 H          1 MOL1         0.1036
      17    H12     22.032778   18.781967   21.246171 H          1 MOL1         0.1036
@<TRIPOS>BOND
    1     1     2    1
    2     1     3    1
    3     1     4    1
    4     1     5    1
    5     5     6    1
    6     5     7    1
    7     5     8    1
    8     8     9    1
    9     8    10    1
   10     8    11    1
   11    11    12    1
   12    11    13    1
   13    11    14    1
   14    14    15    1
   15    14    16    1
   16    14    17    1
@<TRIPOS>SUBSTRUCTURE
       1 MOL1            1 RESIDUE      1      MOL     
@<SCITEGIC>MOL_PROPERTY
VConf Rank
SciTegic.value.IntegerValue
471

@<SCITEGIC>MOL_PROPERTY
Conf_Id
SciTegic.value.IntegerValue
19

@<SCITEGIC>MOL_PROPERTY
Delta U+W
SciTegic.value.DoubleValue
2.662

@<SCITEGIC>MOL_PROPERTY
U+W
SciTegic.value.DoubleValue
-13.203

@<SCITEGIC>MOL_PROPERTY
Grad RMS
SciTegic.value.DoubleValue
0.000000

@<SCITEGIC>MOL_PROPERTY
U
SciTegic.value.DoubleValue
47.423

@<SCITEGIC>MOL_PROPERTY
W
SciTegic.value.DoubleValue
-60.626

@<SCITEGIC>MOL_PROPERTY
W(PB)
SciTegic.value.DoubleValue
-62.328

@<SCITEGIC>MOL_PROPERTY
W(SA)
SciTegic.value.DoubleValue
1.702

@<SCITEGIC>MOL_PROPERTY
Valence
SciTegic.value.DoubleValue
2.414

@<SCITEGIC>MOL_PROPERTY
Coulomb
SciTegic.value.DoubleValue
44.831

@<SCITEGIC>MOL_PROPERTY
VdW
SciTegic.value.DoubleValue
0.178

@<SCITEGIC>MOL_PROPERTY
VdW6
SciTegic.value.DoubleValue
-3.743

@<SCITEGIC>MOL_PROPERTY
VdW12
SciTegic.value.DoubleValue
3.921

@<SCITEGIC>MOL_PROPERTY
Bond
SciTegic.value.DoubleValue
0.138

@<SCITEGIC>MOL_PROPERTY
Angle
SciTegic.value.DoubleValue
0.941

@<SCITEGIC>MOL_PROPERTY
Pdih
SciTegic.value.DoubleValue
1.335

@<SCITEGIC>MOL_PROPERTY
Idih
SciTegic.value.DoubleValue
0.000

@<SCITEGIC>MOL_PROPERTY
Tether
SciTegic.value.DoubleValue
0.000

@<TRIPOS>MOLECULE
guest-1_confgen4.mol2 : confsearch ligand conformer 472
          17          16           1
SMALL
USER_CHARGES
 
@<TRIPOS>ATOM
       1    N1      21.598861   19.237342   20.913687 N.4        1 MOL1        -0.5891
       2    H1      22.464659   19.786149   20.908416 H          1 MOL1         0.3726
       3    H2      21.660060   18.578432   20.131656 H          1 MOL1         0.3726
       4    H3      21.597486   18.683803   21.774174 H          1 MOL1         0.3726
       5    C1      20.370338   20.120698   20.811446 C.3        1 MOL1         0.0314
       6    H4      20.449890   20.671422   19.870218 H          1 MOL1         0.0999
       7    H5      20.393543   20.845327   21.629783 H          1 MOL1         0.0999
       8    C2      19.032486   19.351723   20.832476 C.3        1 MOL1        -0.1308
       9    H6      18.267415   19.998422   20.382704 H          1 MOL1         0.1025
      10    H7      19.097502   18.467136   20.185168 H          1 MOL1         0.1025
      11    C3      18.544492   18.949528   22.247681 C.3        1 MOL1        -0.1243
      12    H8      17.542868   18.506558   22.155395 H          1 MOL1         0.1025
      13    H9      18.422669   19.849789   22.866318 H          1 MOL1         0.1025
      14    C4      19.462332   17.943068   22.978084 C.3        1 MOL1        -0.2258
      15    H10     19.681265   17.072227   22.346534 H          1 MOL1         0.1036
      16    H11     18.975442   17.577728   23.891660 H          1 MOL1         0.1036
      17    H12     20.407904   18.407494   23.281202 H          1 MOL1         0.1036
@<TRIPOS>BOND
    1     1     2    1
    2     1     3    1
    3     1     4    1
    4     1     5    1
    5     5     6    1
    6     5     7    1
    7     5     8    1
    8     8     9    1
    9     8    10    1
   10     8    11    1
   11    11    12    1
   12    11    13    1
   13    11    14    1
   14    14    15    1
   15    14    16    1
   16    14    17    1
@<TRIPOS>SUBSTRUCTURE
       1 MOL1            1 RESIDUE      1      MOL     
@<SCITEGIC>MOL_PROPERTY
VConf Rank
SciTegic.value.IntegerValue
472

@<SCITEGIC>MOL_PROPERTY
Conf_Id
SciTegic.value.IntegerValue
44

@<SCITEGIC>MOL_PROPERTY
Delta U+W
SciTegic.value.DoubleValue
2.712

@<SCITEGIC>MOL_PROPERTY
U+W
SciTegic.value.DoubleValue
-13.153

@<SCITEGIC>MOL_PROPERTY
Grad RMS
SciTegic.value.DoubleValue
0.000000

@<SCITEGIC>MOL_PROPERTY
U
SciTegic.value.DoubleValue
47.423

@<SCITEGIC>MOL_PROPERTY
W
SciTegic.value.DoubleValue
-60.576

@<SCITEGIC>MOL_PROPERTY
W(PB)
SciTegic.value.DoubleValue
-62.262

@<SCITEGIC>MOL_PROPERTY
W(SA)
SciTegic.value.DoubleValue
1.687

@<SCITEGIC>MOL_PROPERTY
Valence
SciTegic.value.DoubleValue
2.414

@<SCITEGIC>MOL_PROPERTY
Coulomb
SciTegic.value.DoubleValue
44.831

@<SCITEGIC>MOL_PROPERTY
VdW
SciTegic.value.DoubleValue
0.178

@<SCITEGIC>MOL_PROPERTY
VdW6
SciTegic.value.DoubleValue
-3.743

@<SCITEGIC>MOL_PROPERTY
VdW12
SciTegic.value.DoubleValue
3.922

@<SCITEGIC>MOL_PROPERTY
Bond
SciTegic.value.DoubleValue
0.138

@<SCITEGIC>MOL_PROPERTY
Angle
SciTegic.value.DoubleValue
0.941

@<SCITEGIC>MOL_PROPERTY
Pdih
SciTegic.value.DoubleValue
1.335

@<SCITEGIC>MOL_PROPERTY
Idih
SciTegic.value.DoubleValue
0.000

@<SCITEGIC>MOL_PROPERTY
Tether
SciTegic.value.DoubleValue
0.000

@<TRIPOS>MOLECULE
guest-1_confgen4.mol2 : confsearch ligand conformer 473
          17          16           1
SMALL
USER_CHARGES
 
@<TRIPOS>ATOM
       1    N1      19.238781   17.502339   22.658817 N.4        1 MOL1        -0.5891
       2    H1      19.782650   18.090572   23.296495 H          1 MOL1         0.3726
       3    H2      19.787408   16.654546   22.486669 H          1 MOL1         0.3726
       4    H3      18.395221   17.213393   23.164371 H          1 MOL1         0.3726
       5    C1      18.903225   18.230249   21.371413 C.3        1 MOL1         0.0314
       6    H4      18.295597   19.103207   21.623479 H          1 MOL1         0.0999
       7    H5      18.293939   17.559965   20.759018 H          1 MOL1         0.0999
       8    C2      20.141829   18.673611   20.565678 C.3        1 MOL1        -0.1308
       9    H6      20.723953   17.786668   20.282458 H          1 MOL1         0.1025
      10    H7      19.804396   19.130584   19.625934 H          1 MOL1         0.1025
      11    C3      21.058054   19.671442   21.316957 C.3        1 MOL1        -0.1243
      12    H8      21.915403   19.917006   20.674652 H          1 MOL1         0.1025
      13    H9      21.477854   19.196640   22.214166 H          1 MOL1         0.1025
      14    C4      20.334424   20.979630   21.710407 C.3        1 MOL1        -0.2258
      15    H10     19.906349   21.474270   20.828846 H          1 MOL1         0.1036
      16    H11     21.035801   21.681300   22.180191 H          1 MOL1         0.1036
      17    H12     19.523760   20.793341   22.425997 H          1 MOL1         0.1036
@<TRIPOS>BOND
    1     1     2    1
    2     1     3    1
    3     1     4    1
    4     1     5    1
    5     5     6    1
    6     5     7    1
    7     5     8    1
    8     8     9    1
    9     8    10    1
   10     8    11    1
   11    11    12    1
   12    11    13    1
   13    11    14    1
   14    14    15    1
   15    14    16    1
   16    14    17    1
@<TRIPOS>SUBSTRUCTURE
       1 MOL1            1 RESIDUE      1      MOL     
@<SCITEGIC>MOL_PROPERTY
VConf Rank
SciTegic.value.IntegerValue
473

@<SCITEGIC>MOL_PROPERTY
Conf_Id
SciTegic.value.IntegerValue
1

@<SCITEGIC>MOL_PROPERTY
Delta U+W
SciTegic.value.DoubleValue
0.685

@<SCITEGIC>MOL_PROPERTY
U+W
SciTegic.value.DoubleValue
-15.179

@<SCITEGIC>MOL_PROPERTY
Grad RMS
SciTegic.value.DoubleValue
0.000000

@<SCITEGIC>MOL_PROPERTY
U
SciTegic.value.DoubleValue
45.697

@<SCITEGIC>MOL_PROPERTY
W
SciTegic.value.DoubleValue
-60.876

@<SCITEGIC>MOL_PROPERTY
W(PB)
SciTegic.value.DoubleValue
-62.586

@<SCITEGIC>MOL_PROPERTY
W(SA)
SciTegic.value.DoubleValue
1.710

@<SCITEGIC>MOL_PROPERTY
Valence
SciTegic.value.DoubleValue
1.263

@<SCITEGIC>MOL_PROPERTY
Coulomb
SciTegic.value.DoubleValue
44.179

@<SCITEGIC>MOL_PROPERTY
VdW
SciTegic.value.DoubleValue
0.255

@<SCITEGIC>MOL_PROPERTY
VdW6
SciTegic.value.DoubleValue
-3.552

@<SCITEGIC>MOL_PROPERTY
VdW12
SciTegic.value.DoubleValue
3.807

@<SCITEGIC>MOL_PROPERTY
Bond
SciTegic.value.DoubleValue
0.125

@<SCITEGIC>MOL_PROPERTY
Angle
SciTegic.value.DoubleValue
0.616

@<SCITEGIC>MOL_PROPERTY
Pdih
SciTegic.value.DoubleValue
0.521

@<SCITEGIC>MOL_PROPERTY
Idih
SciTegic.value.DoubleValue
0.000

@<SCITEGIC>MOL_PROPERTY
Tether
SciTegic.value.DoubleValue
0.000

@<TRIPOS>MOLECULE
guest-1_confgen4.mol2 : confsearch ligand conformer 474
          17          16           1
SMALL
USER_CHARGES
 
@<TRIPOS>ATOM
       1    N1      20.430945   18.398787   23.413612 N.4        1 MOL1        -0.5891
       2    H1      20.407963   19.161562   24.097002 H          1 MOL1         0.3726
       3    H2      21.297558   18.498708   22.877471 H          1 MOL1         0.3726
       4    H3      20.506761   17.525449   23.944837 H          1 MOL1         0.3726
       5    C1      19.209800   18.407776   22.514400 C.3        1 MOL1         0.0314
       6    H4      18.329851   18.259937   23.146357 H          1 MOL1         0.0999
       7    H5      19.283450   17.555982   21.833352 H          1 MOL1         0.0999
       8    C2      19.043233   19.709456   21.703347 C.3        1 MOL1        -0.1308
       9    H6      18.105412   19.651624   21.135060 H          1 MOL1         0.1025
      10    H7      18.929169   20.553680   22.396185 H          1 MOL1         0.1025
      11    C3      20.212172   19.998533   20.728886 C.3        1 MOL1        -0.1243
      12    H8      21.143601   20.150451   21.291038 H          1 MOL1         0.1025
      13    H9      20.013556   20.946523   20.209491 H          1 MOL1         0.1025
      14    C4      20.414383   18.882962   19.677978 C.3        1 MOL1        -0.2258
      15    H10     21.207133   19.159322   18.970772 H          1 MOL1         0.1036
      16    H11     19.495900   18.712899   19.101320 H          1 MOL1         0.1036
      17    H12     20.705101   17.934387   20.146633 H          1 MOL1         0.1036
@<TRIPOS>BOND
    1     1     2    1
    2     1     3    1
    3     1     4    1
    4     1     5    1
    5     5     6    1
    6     5     7    1
    7     5     8    1
    8     8     9    1
    9     8    10    1
   10     8    11    1
   11    11    12    1
   12    11    13    1
   13    11    14    1
   14    14    15    1
   15    14    16    1
   16    14    17    1
@<TRIPOS>SUBSTRUCTURE
       1 MOL1            1 RESIDUE      1      MOL     
@<SCITEGIC>MOL_PROPERTY
VConf Rank
SciTegic.value.IntegerValue
474

@<SCITEGIC>MOL_PROPERTY
Conf_Id
SciTegic.value.IntegerValue
43

@<SCITEGIC>MOL_PROPERTY
Delta U+W
SciTegic.value.DoubleValue
0.642

@<SCITEGIC>MOL_PROPERTY
U+W
SciTegic.value.DoubleValue
-15.222

@<SCITEGIC>MOL_PROPERTY
Grad RMS
SciTegic.value.DoubleValue
0.000000

@<SCITEGIC>MOL_PROPERTY
U
SciTegic.value.DoubleValue
45.697

@<SCITEGIC>MOL_PROPERTY
W
SciTegic.value.DoubleValue
-60.919

@<SCITEGIC>MOL_PROPERTY
W(PB)
SciTegic.value.DoubleValue
-62.631

@<SCITEGIC>MOL_PROPERTY
W(SA)
SciTegic.value.DoubleValue
1.712

@<SCITEGIC>MOL_PROPERTY
Valence
SciTegic.value.DoubleValue
1.262

@<SCITEGIC>MOL_PROPERTY
Coulomb
SciTegic.value.DoubleValue
44.179

@<SCITEGIC>MOL_PROPERTY
VdW
SciTegic.value.DoubleValue
0.255

@<SCITEGIC>MOL_PROPERTY
VdW6
SciTegic.value.DoubleValue
-3.552

@<SCITEGIC>MOL_PROPERTY
VdW12
SciTegic.value.DoubleValue
3.807

@<SCITEGIC>MOL_PROPERTY
Bond
SciTegic.value.DoubleValue
0.125

@<SCITEGIC>MOL_PROPERTY
Angle
SciTegic.value.DoubleValue
0.616

@<SCITEGIC>MOL_PROPERTY
Pdih
SciTegic.value.DoubleValue
0.521

@<SCITEGIC>MOL_PROPERTY
Idih
SciTegic.value.DoubleValue
0.000

@<SCITEGIC>MOL_PROPERTY
Tether
SciTegic.value.DoubleValue
0.000

@<TRIPOS>MOLECULE
guest-1_confgen4.mol2 : confsearch ligand conformer 475
          17          16           1
SMALL
USER_CHARGES
 
@<TRIPOS>ATOM
       1    N1      18.079406   17.312661   21.692378 N.4        1 MOL1        -0.5891
       2    H1      18.675375   16.480258   21.732651 H          1 MOL1         0.3726
       3    H2      17.762123   17.408716   20.722943 H          1 MOL1         0.3726
       4    H3      17.248410   17.109625   22.257294 H          1 MOL1         0.3726
       5    C1      18.802338   18.552837   22.178887 C.3        1 MOL1         0.0314
       6    H4      19.082887   18.392126   23.223390 H          1 MOL1         0.0999
       7    H5      18.100829   19.390518   22.137671 H          1 MOL1         0.0999
       8    C2      20.056977   18.887457   21.351740 C.3        1 MOL1        -0.1308
       9    H6      20.752258   18.037979   21.382751 H          1 MOL1         0.1025
      10    H7      19.773564   19.033080   20.300807 H          1 MOL1         0.1025
      11    C3      20.762596   20.155763   21.879966 C.3        1 MOL1        -0.1243
      12    H8      21.043577   20.011844   22.932897 H          1 MOL1         0.1025
      13    H9      20.066113   21.005744   21.852208 H          1 MOL1         0.1025
      14    C4      22.022218   20.497629   21.055080 C.3        1 MOL1        -0.2258
      15    H10     22.508493   21.400834   21.445984 H          1 MOL1         0.1036
      16    H11     21.768046   20.681178   20.002981 H          1 MOL1         0.1036
      17    H12     22.753197   19.679398   21.092156 H          1 MOL1         0.1036
@<TRIPOS>BOND
    1     1     2    1
    2     1     3    1
    3     1     4    1
    4     1     5    1
    5     5     6    1
    6     5     7    1
    7     5     8    1
    8     8     9    1
    9     8    10    1
   10     8    11    1
   11    11    12    1
   12    11    13    1
   13    11    14    1
   14    14    15    1
   15    14    16    1
   16    14    17    1
@<TRIPOS>SUBSTRUCTURE
       1 MOL1            1 RESIDUE      1      MOL     
@<SCITEGIC>MOL_PROPERTY
VConf Rank
SciTegic.value.IntegerValue
475

@<SCITEGIC>MOL_PROPERTY
Conf_Id
SciTegic.value.IntegerValue
7

@<SCITEGIC>MOL_PROPERTY
Delta U+W
SciTegic.value.DoubleValue
0.000

@<SCITEGIC>MOL_PROPERTY
U+W
SciTegic.value.DoubleValue
-15.865

@<SCITEGIC>MOL_PROPERTY
Grad RMS
SciTegic.value.DoubleValue
0.000000

@<SCITEGIC>MOL_PROPERTY
U
SciTegic.value.DoubleValue
44.664

@<SCITEGIC>MOL_PROPERTY
W
SciTegic.value.DoubleValue
-60.529

@<SCITEGIC>MOL_PROPERTY
W(PB)
SciTegic.value.DoubleValue
-62.309

@<SCITEGIC>MOL_PROPERTY
W(SA)
SciTegic.value.DoubleValue
1.780

@<SCITEGIC>MOL_PROPERTY
Valence
SciTegic.value.DoubleValue
0.872

@<SCITEGIC>MOL_PROPERTY
Coulomb
SciTegic.value.DoubleValue
43.648

@<SCITEGIC>MOL_PROPERTY
VdW
SciTegic.value.DoubleValue
0.144

@<SCITEGIC>MOL_PROPERTY
VdW6
SciTegic.value.DoubleValue
-2.370

@<SCITEGIC>MOL_PROPERTY
VdW12
SciTegic.value.DoubleValue
2.515

@<SCITEGIC>MOL_PROPERTY
Bond
SciTegic.value.DoubleValue
0.080

@<SCITEGIC>MOL_PROPERTY
Angle
SciTegic.value.DoubleValue
0.376

@<SCITEGIC>MOL_PROPERTY
Pdih
SciTegic.value.DoubleValue
0.416

@<SCITEGIC>MOL_PROPERTY
Idih
SciTegic.value.DoubleValue
0.000

@<SCITEGIC>MOL_PROPERTY
Tether
SciTegic.value.DoubleValue
0.000

@<TRIPOS>MOLECULE
guest-1_confgen4.mol2 : confsearch ligand conformer 476
          17          16           1
SMALL
USER_CHARGES
 
@<TRIPOS>ATOM
       1    N1      18.232450   19.666951   20.000089 N.4        1 MOL1        -0.5891
       2    H1      17.421618   19.057665   20.144903 H          1 MOL1         0.3726
       3    H2      18.717880   19.327833   19.164025 H          1 MOL1         0.3726
       4    H3      17.867003   20.597553   19.773655 H          1 MOL1         0.3726
       5    C1      19.142799   19.698230   21.211551 C.3        1 MOL1         0.0314
       6    H4      18.570729   20.096336   22.053962 H          1 MOL1         0.0999
       7    H5      19.963136   20.388195   20.997462 H          1 MOL1         0.0999
       8    C2      19.710572   18.314025   21.579750 C.3        1 MOL1        -0.1308
       9    H6      18.878715   17.618562   21.753597 H          1 MOL1         0.1025
      10    H7      20.283738   17.913460   20.733041 H          1 MOL1         0.1025
      11    C3      20.605996   18.352666   22.840197 C.3        1 MOL1        -0.1243
      12    H8      20.910660   17.327402   23.093171 H          1 MOL1         0.1025
      13    H9      20.024275   18.722080   23.696535 H          1 MOL1         0.1025
      14    C4      21.870134   19.223475   22.656883 C.3        1 MOL1        -0.2258
      15    H10     22.466972   18.878608   21.802497 H          1 MOL1         0.1036
      16    H11     22.505180   19.173092   23.550855 H          1 MOL1         0.1036
      17    H12     21.613523   20.277639   22.492627 H          1 MOL1         0.1036
@<TRIPOS>BOND
    1     1     2    1
    2     1     3    1
    3     1     4    1
    4     1     5    1
    5     5     6    1
    6     5     7    1
    7     5     8    1
    8     8     9    1
    9     8    10    1
   10     8    11    1
   11    11    12    1
   12    11    13    1
   13    11    14    1
   14    14    15    1
   15    14    16    1
   16    14    17    1
@<TRIPOS>SUBSTRUCTURE
       1 MOL1            1 RESIDUE      1      MOL     
@<SCITEGIC>MOL_PROPERTY
VConf Rank
SciTegic.value.IntegerValue
476

@<SCITEGIC>MOL_PROPERTY
Conf_Id
SciTegic.value.IntegerValue
36

@<SCITEGIC>MOL_PROPERTY
Delta U+W
SciTegic.value.DoubleValue
0.275

@<SCITEGIC>MOL_PROPERTY
U+W
SciTegic.value.DoubleValue
-15.590

@<SCITEGIC>MOL_PROPERTY
Grad RMS
SciTegic.value.DoubleValue
0.000000

@<SCITEGIC>MOL_PROPERTY
U
SciTegic.value.DoubleValue
45.174

@<SCITEGIC>MOL_PROPERTY
W
SciTegic.value.DoubleValue
-60.765

@<SCITEGIC>MOL_PROPERTY
W(PB)
SciTegic.value.DoubleValue
-62.518

@<SCITEGIC>MOL_PROPERTY
W(SA)
SciTegic.value.DoubleValue
1.754

@<SCITEGIC>MOL_PROPERTY
Valence
SciTegic.value.DoubleValue
1.161

@<SCITEGIC>MOL_PROPERTY
Coulomb
SciTegic.value.DoubleValue
43.789

@<SCITEGIC>MOL_PROPERTY
VdW
SciTegic.value.DoubleValue
0.224

@<SCITEGIC>MOL_PROPERTY
VdW6
SciTegic.value.DoubleValue
-2.897

@<SCITEGIC>MOL_PROPERTY
VdW12
SciTegic.value.DoubleValue
3.121

@<SCITEGIC>MOL_PROPERTY
Bond
SciTegic.value.DoubleValue
0.100

@<SCITEGIC>MOL_PROPERTY
Angle
SciTegic.value.DoubleValue
0.500

@<SCITEGIC>MOL_PROPERTY
Pdih
SciTegic.value.DoubleValue
0.561

@<SCITEGIC>MOL_PROPERTY
Idih
SciTegic.value.DoubleValue
0.000

@<SCITEGIC>MOL_PROPERTY
Tether
SciTegic.value.DoubleValue
0.000

@<TRIPOS>MOLECULE
guest-1_confgen4.mol2 : confsearch ligand conformer 477
          17          16           1
SMALL
USER_CHARGES
 
@<TRIPOS>ATOM
       1    N1      20.831137   20.466426   20.915610 N.4        1 MOL1        -0.5891
       2    H1      20.041789   20.200494   20.321426 H          1 MOL1         0.3726
       3    H2      21.679285   20.103590   20.470106 H          1 MOL1         0.3726
       4    H3      20.896912   21.489124   20.891409 H          1 MOL1         0.3726
       5    C1      20.670563   19.944755   22.330568 C.3        1 MOL1         0.0314
       6    H4      19.791201   20.416075   22.777651 H          1 MOL1         0.0999
       7    H5      21.550372   20.269321   22.892822 H          1 MOL1         0.0999
       8    C2      20.548087   18.409638   22.430700 C.3        1 MOL1        -0.1308
       9    H6      21.288034   17.930326   21.776126 H          1 MOL1         0.1025
      10    H7      20.818074   18.118234   23.454437 H          1 MOL1         0.1025
      11    C3      19.129937   17.857430   22.136382 C.3        1 MOL1        -0.1243
      12    H8      18.408756   18.297325   22.839526 H          1 MOL1         0.1025
      13    H9      19.130569   16.777022   22.338143 H          1 MOL1         0.1025
      14    C4      18.642610   18.087245   20.687735 C.3        1 MOL1        -0.2258
      15    H10     18.424431   19.144929   20.499641 H          1 MOL1         0.1036
      16    H11     17.714764   17.529551   20.505430 H          1 MOL1         0.1036
      17    H12     19.386677   17.743231   19.957549 H          1 MOL1         0.1036
@<TRIPOS>BOND
    1     1     2    1
    2     1     3    1
    3     1     4    1
    4     1     5    1
    5     5     6    1
    6     5     7    1
    7     5     8    1
    8     8     9    1
    9     8    10    1
   10     8    11    1
   11    11    12    1
   12    11    13    1
   13    11    14    1
   14    14    15    1
   15    14    16    1
   16    14    17    1
@<TRIPOS>SUBSTRUCTURE
       1 MOL1            1 RESIDUE      1      MOL     
@<SCITEGIC>MOL_PROPERTY
VConf Rank
SciTegic.value.IntegerValue
477

@<SCITEGIC>MOL_PROPERTY
Conf_Id
SciTegic.value.IntegerValue
19

@<SCITEGIC>MOL_PROPERTY
Delta U+W
SciTegic.value.DoubleValue
2.662

@<SCITEGIC>MOL_PROPERTY
U+W
SciTegic.value.DoubleValue
-13.203

@<SCITEGIC>MOL_PROPERTY
Grad RMS
SciTegic.value.DoubleValue
0.000000

@<SCITEGIC>MOL_PROPERTY
U
SciTegic.value.DoubleValue
47.423

@<SCITEGIC>MOL_PROPERTY
W
SciTegic.value.DoubleValue
-60.626

@<SCITEGIC>MOL_PROPERTY
W(PB)
SciTegic.value.DoubleValue
-62.328

@<SCITEGIC>MOL_PROPERTY
W(SA)
SciTegic.value.DoubleValue
1.702

@<SCITEGIC>MOL_PROPERTY
Valence
SciTegic.value.DoubleValue
2.414

@<SCITEGIC>MOL_PROPERTY
Coulomb
SciTegic.value.DoubleValue
44.831

@<SCITEGIC>MOL_PROPERTY
VdW
SciTegic.value.DoubleValue
0.178

@<SCITEGIC>MOL_PROPERTY
VdW6
SciTegic.value.DoubleValue
-3.743

@<SCITEGIC>MOL_PROPERTY
VdW12
SciTegic.value.DoubleValue
3.921

@<SCITEGIC>MOL_PROPERTY
Bond
SciTegic.value.DoubleValue
0.138

@<SCITEGIC>MOL_PROPERTY
Angle
SciTegic.value.DoubleValue
0.941

@<SCITEGIC>MOL_PROPERTY
Pdih
SciTegic.value.DoubleValue
1.335

@<SCITEGIC>MOL_PROPERTY
Idih
SciTegic.value.DoubleValue
0.000

@<SCITEGIC>MOL_PROPERTY
Tether
SciTegic.value.DoubleValue
0.000

@<TRIPOS>MOLECULE
guest-1_confgen4.mol2 : confsearch ligand conformer 478
          17          16           1
SMALL
USER_CHARGES
 
@<TRIPOS>ATOM
       1    N1      19.642416   20.496256   22.758002 N.4        1 MOL1        -0.5891
       2    H1      19.282118   21.448791   22.874985 H          1 MOL1         0.3726
       3    H2      20.209628   20.289481   23.585646 H          1 MOL1         0.3726
       4    H3      18.837923   19.864438   22.779021 H          1 MOL1         0.3726
       5    C1      20.440240   20.348246   21.476749 C.3        1 MOL1         0.0314
       6    H4      21.275287   21.051529   21.536959 H          1 MOL1         0.0999
       7    H5      19.807599   20.646222   20.636346 H          1 MOL1         0.0999
       8    C2      20.995018   18.928558   21.235257 C.3        1 MOL1        -0.1308
       9    H6      21.835609   19.012360   20.533666 H          1 MOL1         0.1025
      10    H7      21.418215   18.527386   22.165684 H          1 MOL1         0.1025
      11    C3      19.970890   17.931784   20.635002 C.3        1 MOL1        -0.1243
      12    H8      20.494637   16.992737   20.407250 H          1 MOL1         0.1025
      13    H9      19.602300   18.315033   19.673086 H          1 MOL1         0.1025
      14    C4      18.771430   17.615206   21.556931 C.3        1 MOL1        -0.2258
      15    H10     19.106510   17.319558   22.559660 H          1 MOL1         0.1036
      16    H11     18.183110   16.785235   21.144399 H          1 MOL1         0.1036
      17    H12     18.096280   18.474023   21.647961 H          1 MOL1         0.1036
@<TRIPOS>BOND
    1     1     2    1
    2     1     3    1
    3     1     4    1
    4     1     5    1
    5     5     6    1
    6     5     7    1
    7     5     8    1
    8     8     9    1
    9     8    10    1
   10     8    11    1
   11    11    12    1
   12    11    13    1
   13    11    14    1
   14    14    15    1
   15    14    16    1
   16    14    17    1
@<TRIPOS>SUBSTRUCTURE
       1 MOL1            1 RESIDUE      1      MOL     
@<SCITEGIC>MOL_PROPERTY
VConf Rank
SciTegic.value.IntegerValue
478

@<SCITEGIC>MOL_PROPERTY
Conf_Id
SciTegic.value.IntegerValue
44

@<SCITEGIC>MOL_PROPERTY
Delta U+W
SciTegic.value.DoubleValue
2.712

@<SCITEGIC>MOL_PROPERTY
U+W
SciTegic.value.DoubleValue
-13.153

@<SCITEGIC>MOL_PROPERTY
Grad RMS
SciTegic.value.DoubleValue
0.000000

@<SCITEGIC>MOL_PROPERTY
U
SciTegic.value.DoubleValue
47.423

@<SCITEGIC>MOL_PROPERTY
W
SciTegic.value.DoubleValue
-60.576

@<SCITEGIC>MOL_PROPERTY
W(PB)
SciTegic.value.DoubleValue
-62.262

@<SCITEGIC>MOL_PROPERTY
W(SA)
SciTegic.value.DoubleValue
1.687

@<SCITEGIC>MOL_PROPERTY
Valence
SciTegic.value.DoubleValue
2.414

@<SCITEGIC>MOL_PROPERTY
Coulomb
SciTegic.value.DoubleValue
44.831

@<SCITEGIC>MOL_PROPERTY
VdW
SciTegic.value.DoubleValue
0.178

@<SCITEGIC>MOL_PROPERTY
VdW6
SciTegic.value.DoubleValue
-3.743

@<SCITEGIC>MOL_PROPERTY
VdW12
SciTegic.value.DoubleValue
3.922

@<SCITEGIC>MOL_PROPERTY
Bond
SciTegic.value.DoubleValue
0.138

@<SCITEGIC>MOL_PROPERTY
Angle
SciTegic.value.DoubleValue
0.941

@<SCITEGIC>MOL_PROPERTY
Pdih
SciTegic.value.DoubleValue
1.335

@<SCITEGIC>MOL_PROPERTY
Idih
SciTegic.value.DoubleValue
0.000

@<SCITEGIC>MOL_PROPERTY
Tether
SciTegic.value.DoubleValue
0.000

@<TRIPOS>MOLECULE
guest-1_confgen4.mol2 : confsearch ligand conformer 479
          17          16           1
SMALL
USER_CHARGES
 
@<TRIPOS>ATOM
       1    N1      21.077702   20.098872   20.383105 N.4        1 MOL1        -0.5891
       2    H1      21.588309   19.986615   21.263517 H          1 MOL1         0.3726
       3    H2      20.774338   21.075948   20.331413 H          1 MOL1         0.3726
       4    H3      21.753044   19.956443   19.625283 H          1 MOL1         0.3726
       5    C1      19.908864   19.137594   20.285015 C.3        1 MOL1         0.0314
       6    H4      20.303644   18.118793   20.316620 H          1 MOL1         0.0999
       7    H5      19.436085   19.286621   19.310434 H          1 MOL1         0.0999
       8    C2      18.855728   19.322188   21.397108 C.3        1 MOL1        -0.1308
       9    H6      18.436007   20.334749   21.331509 H          1 MOL1         0.1025
      10    H7      18.021843   18.632928   21.209067 H          1 MOL1         0.1025
      11    C3      19.401144   19.083479   22.827176 C.3        1 MOL1        -0.1243
      12    H8      18.588712   19.250873   23.548174 H          1 MOL1         0.1025
      13    H9      20.174996   19.825946   23.064980 H          1 MOL1         0.1025
      14    C4      19.966589   17.659018   23.029614 C.3        1 MOL1        -0.2258
      15    H10     19.210152   16.897711   22.798785 H          1 MOL1         0.1036
      16    H11     20.280409   17.513797   24.071438 H          1 MOL1         0.1036
      17    H12     20.841076   17.477188   22.392309 H          1 MOL1         0.1036
@<TRIPOS>BOND
    1     1     2    1
    2     1     3    1
    3     1     4    1
    4     1     5    1
    5     5     6    1
    6     5     7    1
    7     5     8    1
    8     8     9    1
    9     8    10    1
   10     8    11    1
   11    11    12    1
   12    11    13    1
   13    11    14    1
   14    14    15    1
   15    14    16    1
   16    14    17    1
@<TRIPOS>SUBSTRUCTURE
       1 MOL1            1 RESIDUE      1      MOL     
@<SCITEGIC>MOL_PROPERTY
VConf Rank
SciTegic.value.IntegerValue
479

@<SCITEGIC>MOL_PROPERTY
Conf_Id
SciTegic.value.IntegerValue
1

@<SCITEGIC>MOL_PROPERTY
Delta U+W
SciTegic.value.DoubleValue
0.685

@<SCITEGIC>MOL_PROPERTY
U+W
SciTegic.value.DoubleValue
-15.179

@<SCITEGIC>MOL_PROPERTY
Grad RMS
SciTegic.value.DoubleValue
0.000000

@<SCITEGIC>MOL_PROPERTY
U
SciTegic.value.DoubleValue
45.697

@<SCITEGIC>MOL_PROPERTY
W
SciTegic.value.DoubleValue
-60.876

@<SCITEGIC>MOL_PROPERTY
W(PB)
SciTegic.value.DoubleValue
-62.586

@<SCITEGIC>MOL_PROPERTY
W(SA)
SciTegic.value.DoubleValue
1.710

@<SCITEGIC>MOL_PROPERTY
Valence
SciTegic.value.DoubleValue
1.263

@<SCITEGIC>MOL_PROPERTY
Coulomb
SciTegic.value.DoubleValue
44.179

@<SCITEGIC>MOL_PROPERTY
VdW
SciTegic.value.DoubleValue
0.255

@<SCITEGIC>MOL_PROPERTY
VdW6
SciTegic.value.DoubleValue
-3.552

@<SCITEGIC>MOL_PROPERTY
VdW12
SciTegic.value.DoubleValue
3.807

@<SCITEGIC>MOL_PROPERTY
Bond
SciTegic.value.DoubleValue
0.125

@<SCITEGIC>MOL_PROPERTY
Angle
SciTegic.value.DoubleValue
0.616

@<SCITEGIC>MOL_PROPERTY
Pdih
SciTegic.value.DoubleValue
0.521

@<SCITEGIC>MOL_PROPERTY
Idih
SciTegic.value.DoubleValue
0.000

@<SCITEGIC>MOL_PROPERTY
Tether
SciTegic.value.DoubleValue
0.000

@<TRIPOS>MOLECULE
guest-1_confgen4.mol2 : confsearch ligand conformer 480
          17          16           1
SMALL
USER_CHARGES
 
@<TRIPOS>ATOM
       1    N1      19.828721   17.095150   21.160162 N.4        1 MOL1        -0.5891
       2    H1      19.720217   16.523226   22.003078 H          1 MOL1         0.3726
       3    H2      20.814154   17.367571   21.103970 H          1 MOL1         0.3726
       4    H3      19.641252   16.483462   20.359312 H          1 MOL1         0.3726
       5    C1      18.911838   18.303036   21.174092 C.3        1 MOL1         0.0314
       6    H4      17.881232   17.938509   21.196659 H          1 MOL1         0.0999
       7    H5      19.056306   18.849697   20.238626 H          1 MOL1         0.0999
       8    C2      19.145474   19.248460   22.370549 C.3        1 MOL1        -0.1308
       9    H6      18.399418   20.053321   22.333117 H          1 MOL1         0.1025
      10    H7      18.958279   18.701413   23.304062 H          1 MOL1         0.1025
      11    C3      20.563578   19.870227   22.414649 C.3        1 MOL1        -0.1243
      12    H8      21.317565   19.082046   22.544761 H          1 MOL1         0.1025
      13    H9      20.640587   20.512955   23.302835 H          1 MOL1         0.1025
      14    C4      20.896990   20.707416   21.158564 C.3        1 MOL1        -0.2258
      15    H10     21.881918   21.180952   21.261753 H          1 MOL1         0.1036
      16    H11     20.156921   21.503980   21.007399 H          1 MOL1         0.1036
      17    H12     20.921536   20.086619   20.254154 H          1 MOL1         0.1036
@<TRIPOS>BOND
    1     1     2    1
    2     1     3    1
    3     1     4    1
    4     1     5    1
    5     5     6    1
    6     5     7    1
    7     5     8    1
    8     8     9    1
    9     8    10    1
   10     8    11    1
   11    11    12    1
   12    11    13    1
   13    11    14    1
   14    14    15    1
   15    14    16    1
   16    14    17    1
@<TRIPOS>SUBSTRUCTURE
       1 MOL1            1 RESIDUE      1      MOL     
@<SCITEGIC>MOL_PROPERTY
VConf Rank
SciTegic.value.IntegerValue
480

@<SCITEGIC>MOL_PROPERTY
Conf_Id
SciTegic.value.IntegerValue
43

@<SCITEGIC>MOL_PROPERTY
Delta U+W
SciTegic.value.DoubleValue
0.642

@<SCITEGIC>MOL_PROPERTY
U+W
SciTegic.value.DoubleValue
-15.222

@<SCITEGIC>MOL_PROPERTY
Grad RMS
SciTegic.value.DoubleValue
0.000000

@<SCITEGIC>MOL_PROPERTY
U
SciTegic.value.DoubleValue
45.697

@<SCITEGIC>MOL_PROPERTY
W
SciTegic.value.DoubleValue
-60.919

@<SCITEGIC>MOL_PROPERTY
W(PB)
SciTegic.value.DoubleValue
-62.631

@<SCITEGIC>MOL_PROPERTY
W(SA)
SciTegic.value.DoubleValue
1.712

@<SCITEGIC>MOL_PROPERTY
Valence
SciTegic.value.DoubleValue
1.262

@<SCITEGIC>MOL_PROPERTY
Coulomb
SciTegic.value.DoubleValue
44.179

@<SCITEGIC>MOL_PROPERTY
VdW
SciTegic.value.DoubleValue
0.255

@<SCITEGIC>MOL_PROPERTY
VdW6
SciTegic.value.DoubleValue
-3.552

@<SCITEGIC>MOL_PROPERTY
VdW12
SciTegic.value.DoubleValue
3.807

@<SCITEGIC>MOL_PROPERTY
Bond
SciTegic.value.DoubleValue
0.125

@<SCITEGIC>MOL_PROPERTY
Angle
SciTegic.value.DoubleValue
0.616

@<SCITEGIC>MOL_PROPERTY
Pdih
SciTegic.value.DoubleValue
0.521

@<SCITEGIC>MOL_PROPERTY
Idih
SciTegic.value.DoubleValue
0.000

@<SCITEGIC>MOL_PROPERTY
Tether
SciTegic.value.DoubleValue
0.000

@<TRIPOS>MOLECULE
guest-1_confgen4.mol2 : confsearch ligand conformer 481
          17          16           1
SMALL
USER_CHARGES
 
@<TRIPOS>ATOM
       1    N1      19.020497   18.077424   19.424257 N.4        1 MOL1        -0.5891
       2    H1      19.196561   18.889912   18.825456 H          1 MOL1         0.3726
       3    H2      18.029294   18.103150   19.682232 H          1 MOL1         0.3726
       4    H3      19.153208   17.245081   18.840732 H          1 MOL1         0.3726
       5    C1      19.923893   18.062381   20.641223 C.3        1 MOL1         0.0314
       6    H4      20.958631   18.003594   20.292821 H          1 MOL1         0.0999
       7    H5      19.703473   17.157542   21.214115 H          1 MOL1         0.0999
       8    C2      19.750376   19.299560   21.540968 C.3        1 MOL1        -0.1308
       9    H6      19.957463   20.207024   20.958204 H          1 MOL1         0.1025
      10    H7      18.706672   19.363801   21.876445 H          1 MOL1         0.1025
      11    C3      20.687708   19.244619   22.767308 C.3        1 MOL1        -0.1243
      12    H8      21.732412   19.176954   22.432136 H          1 MOL1         0.1025
      13    H9      20.483105   18.334809   23.349297 H          1 MOL1         0.1025
      14    C4      20.519264   20.482563   23.674543 C.3        1 MOL1        -0.2258
      15    H10     21.193216   20.424414   24.539099 H          1 MOL1         0.1036
      16    H11     19.491760   20.558011   24.053687 H          1 MOL1         0.1036
      17    H12     20.750873   21.406808   23.129258 H          1 MOL1         0.1036
@<TRIPOS>BOND
    1     1     2    1
    2     1     3    1
    3     1     4    1
    4     1     5    1
    5     5     6    1
    6     5     7    1
    7     5     8    1
    8     8     9    1
    9     8    10    1
   10     8    11    1
   11    11    12    1
   12    11    13    1
   13    11    14    1
   14    14    15    1
   15    14    16    1
   16    14    17    1
@<TRIPOS>SUBSTRUCTURE
       1 MOL1            1 RESIDUE      1      MOL     
@<SCITEGIC>MOL_PROPERTY
VConf Rank
SciTegic.value.IntegerValue
481

@<SCITEGIC>MOL_PROPERTY
Conf_Id
SciTegic.value.IntegerValue
7

@<SCITEGIC>MOL_PROPERTY
Delta U+W
SciTegic.value.DoubleValue
0.000

@<SCITEGIC>MOL_PROPERTY
U+W
SciTegic.value.DoubleValue
-15.865

@<SCITEGIC>MOL_PROPERTY
Grad RMS
SciTegic.value.DoubleValue
0.000000

@<SCITEGIC>MOL_PROPERTY
U
SciTegic.value.DoubleValue
44.664

@<SCITEGIC>MOL_PROPERTY
W
SciTegic.value.DoubleValue
-60.529

@<SCITEGIC>MOL_PROPERTY
W(PB)
SciTegic.value.DoubleValue
-62.309

@<SCITEGIC>MOL_PROPERTY
W(SA)
SciTegic.value.DoubleValue
1.780

@<SCITEGIC>MOL_PROPERTY
Valence
SciTegic.value.DoubleValue
0.872

@<SCITEGIC>MOL_PROPERTY
Coulomb
SciTegic.value.DoubleValue
43.648

@<SCITEGIC>MOL_PROPERTY
VdW
SciTegic.value.DoubleValue
0.144

@<SCITEGIC>MOL_PROPERTY
VdW6
SciTegic.value.DoubleValue
-2.370

@<SCITEGIC>MOL_PROPERTY
VdW12
SciTegic.value.DoubleValue
2.515

@<SCITEGIC>MOL_PROPERTY
Bond
SciTegic.value.DoubleValue
0.080

@<SCITEGIC>MOL_PROPERTY
Angle
SciTegic.value.DoubleValue
0.376

@<SCITEGIC>MOL_PROPERTY
Pdih
SciTegic.value.DoubleValue
0.416

@<SCITEGIC>MOL_PROPERTY
Idih
SciTegic.value.DoubleValue
0.000

@<SCITEGIC>MOL_PROPERTY
Tether
SciTegic.value.DoubleValue
0.000

@<TRIPOS>MOLECULE
guest-1_confgen4.mol2 : confsearch ligand conformer 482
          17          16           1
SMALL
USER_CHARGES
 
@<TRIPOS>ATOM
       1    N1      19.005789   17.474449   20.088486 N.4        1 MOL1        -0.5891
       2    H1      18.119821   17.129293   20.470029 H          1 MOL1         0.3726
       3    H2      19.702032   16.736311   20.230070 H          1 MOL1         0.3726
       4    H3      18.875565   17.568823   19.076074 H          1 MOL1         0.3726
       5    C1      19.427704   18.782757   20.726980 C.3        1 MOL1         0.0314
       6    H4      18.657157   19.527906   20.511532 H          1 MOL1         0.0999
       7    H5      20.357959   19.103975   20.251288 H          1 MOL1         0.0999
       8    C2      19.632786   18.676109   22.250308 C.3        1 MOL1        -0.1308
       9    H6      18.705235   18.314568   22.713789 H          1 MOL1         0.1025
      10    H7      20.405517   17.926492   22.466753 H          1 MOL1         0.1025
      11    C3      20.024695   20.026050   22.895344 C.3        1 MOL1        -0.1243
      12    H8      20.076223   19.898967   23.985837 H          1 MOL1         0.1025
      13    H9      19.236352   20.768738   22.707959 H          1 MOL1         0.1025
      14    C4      21.380127   20.568014   22.386388 C.3        1 MOL1        -0.2258
      15    H10     22.185177   19.841308   22.556442 H          1 MOL1         0.1036
      16    H11     21.647302   21.492966   22.913728 H          1 MOL1         0.1036
      17    H12     21.345940   20.797048   21.313790 H          1 MOL1         0.1036
@<TRIPOS>BOND
    1     1     2    1
    2     1     3    1
    3     1     4    1
    4     1     5    1
    5     5     6    1
    6     5     7    1
    7     5     8    1
    8     8     9    1
    9     8    10    1
   10     8    11    1
   11    11    12    1
   12    11    13    1
   13    11    14    1
   14    14    15    1
   15    14    16    1
   16    14    17    1
@<TRIPOS>SUBSTRUCTURE
       1 MOL1            1 RESIDUE      1      MOL     
@<SCITEGIC>MOL_PROPERTY
VConf Rank
SciTegic.value.IntegerValue
482

@<SCITEGIC>MOL_PROPERTY
Conf_Id
SciTegic.value.IntegerValue
36

@<SCITEGIC>MOL_PROPERTY
Delta U+W
SciTegic.value.DoubleValue
0.275

@<SCITEGIC>MOL_PROPERTY
U+W
SciTegic.value.DoubleValue
-15.590

@<SCITEGIC>MOL_PROPERTY
Grad RMS
SciTegic.value.DoubleValue
0.000000

@<SCITEGIC>MOL_PROPERTY
U
SciTegic.value.DoubleValue
45.174

@<SCITEGIC>MOL_PROPERTY
W
SciTegic.value.DoubleValue
-60.765

@<SCITEGIC>MOL_PROPERTY
W(PB)
SciTegic.value.DoubleValue
-62.518

@<SCITEGIC>MOL_PROPERTY
W(SA)
SciTegic.value.DoubleValue
1.754

@<SCITEGIC>MOL_PROPERTY
Valence
SciTegic.value.DoubleValue
1.161

@<SCITEGIC>MOL_PROPERTY
Coulomb
SciTegic.value.DoubleValue
43.789

@<SCITEGIC>MOL_PROPERTY
VdW
SciTegic.value.DoubleValue
0.224

@<SCITEGIC>MOL_PROPERTY
VdW6
SciTegic.value.DoubleValue
-2.897

@<SCITEGIC>MOL_PROPERTY
VdW12
SciTegic.value.DoubleValue
3.121

@<SCITEGIC>MOL_PROPERTY
Bond
SciTegic.value.DoubleValue
0.100

@<SCITEGIC>MOL_PROPERTY
Angle
SciTegic.value.DoubleValue
0.500

@<SCITEGIC>MOL_PROPERTY
Pdih
SciTegic.value.DoubleValue
0.561

@<SCITEGIC>MOL_PROPERTY
Idih
SciTegic.value.DoubleValue
0.000

@<SCITEGIC>MOL_PROPERTY
Tether
SciTegic.value.DoubleValue
0.000

@<TRIPOS>MOLECULE
guest-1_confgen4.mol2 : confsearch ligand conformer 483
          17          16           1
SMALL
USER_CHARGES
 
@<TRIPOS>ATOM
       1    N1      18.551302   20.196043   21.336922 N.4        1 MOL1        -0.5891
       2    H1      18.737211   19.652791   20.490068 H          1 MOL1         0.3726
       3    H2      18.993719   21.111391   21.210887 H          1 MOL1         0.3726
       4    H3      17.539817   20.357730   21.376630 H          1 MOL1         0.3726
       5    C1      19.059160   19.491066   22.579950 C.3        1 MOL1         0.0314
       6    H4      18.505739   18.555909   22.700403 H          1 MOL1         0.0999
       7    H5      18.823617   20.135086   23.431593 H          1 MOL1         0.0999
       8    C2      20.575328   19.203363   22.571386 C.3        1 MOL1        -0.1308
       9    H6      21.122479   20.082961   22.207156 H          1 MOL1         0.1025
      10    H7      20.894788   19.059677   23.612129 H          1 MOL1         0.1025
      11    C3      20.985773   17.942538   21.768541 C.3        1 MOL1        -0.1243
      12    H8      20.479828   17.059357   22.183308 H          1 MOL1         0.1025
      13    H9      22.061710   17.773470   21.916074 H          1 MOL1         0.1025
      14    C4      20.705125   18.031684   20.251250 C.3        1 MOL1        -0.2258
      15    H10     19.630642   17.991753   20.037787 H          1 MOL1         0.1036
      16    H11     21.169164   17.185433   19.728104 H          1 MOL1         0.1036
      17    H12     21.117794   18.954464   19.823073 H          1 MOL1         0.1036
@<TRIPOS>BOND
    1     1     2    1
    2     1     3    1
    3     1     4    1
    4     1     5    1
    5     5     6    1
    6     5     7    1
    7     5     8    1
    8     8     9    1
    9     8    10    1
   10     8    11    1
   11    11    12    1
   12    11    13    1
   13    11    14    1
   14    14    15    1
   15    14    16    1
   16    14    17    1
@<TRIPOS>SUBSTRUCTURE
       1 MOL1            1 RESIDUE      1      MOL     
@<SCITEGIC>MOL_PROPERTY
VConf Rank
SciTegic.value.IntegerValue
483

@<SCITEGIC>MOL_PROPERTY
Conf_Id
SciTegic.value.IntegerValue
19

@<SCITEGIC>MOL_PROPERTY
Delta U+W
SciTegic.value.DoubleValue
2.662

@<SCITEGIC>MOL_PROPERTY
U+W
SciTegic.value.DoubleValue
-13.203

@<SCITEGIC>MOL_PROPERTY
Grad RMS
SciTegic.value.DoubleValue
0.000000

@<SCITEGIC>MOL_PROPERTY
U
SciTegic.value.DoubleValue
47.423

@<SCITEGIC>MOL_PROPERTY
W
SciTegic.value.DoubleValue
-60.626

@<SCITEGIC>MOL_PROPERTY
W(PB)
SciTegic.value.DoubleValue
-62.328

@<SCITEGIC>MOL_PROPERTY
W(SA)
SciTegic.value.DoubleValue
1.702

@<SCITEGIC>MOL_PROPERTY
Valence
SciTegic.value.DoubleValue
2.414

@<SCITEGIC>MOL_PROPERTY
Coulomb
SciTegic.value.DoubleValue
44.831

@<SCITEGIC>MOL_PROPERTY
VdW
SciTegic.value.DoubleValue
0.178

@<SCITEGIC>MOL_PROPERTY
VdW6
SciTegic.value.DoubleValue
-3.743

@<SCITEGIC>MOL_PROPERTY
VdW12
SciTegic.value.DoubleValue
3.921

@<SCITEGIC>MOL_PROPERTY
Bond
SciTegic.value.DoubleValue
0.138

@<SCITEGIC>MOL_PROPERTY
Angle
SciTegic.value.DoubleValue
0.941

@<SCITEGIC>MOL_PROPERTY
Pdih
SciTegic.value.DoubleValue
1.335

@<SCITEGIC>MOL_PROPERTY
Idih
SciTegic.value.DoubleValue
0.000

@<SCITEGIC>MOL_PROPERTY
Tether
SciTegic.value.DoubleValue
0.000

@<TRIPOS>MOLECULE
guest-1_confgen4.mol2 : confsearch ligand conformer 484
          17          16           1
SMALL
USER_CHARGES
 
@<TRIPOS>ATOM
       1    N1      19.138082   17.368991   21.797790 N.4        1 MOL1        -0.5891
       2    H1      18.769566   16.537417   21.325027 H          1 MOL1         0.3726
       3    H2      18.889209   17.282634   22.787782 H          1 MOL1         0.3726
       4    H3      20.158479   17.322502   21.738856 H          1 MOL1         0.3726
       5    C1      18.597573   18.649245   21.190470 C.3        1 MOL1         0.0314
       6    H4      17.509716   18.618955   21.296235 H          1 MOL1         0.0999
       7    H5      18.833124   18.654610   20.122862 H          1 MOL1         0.0999
       8    C2      19.131069   19.938666   21.849552 C.3        1 MOL1        -0.1308
       9    H6      18.425656   20.748444   21.620427 H          1 MOL1         0.1025
      10    H7      19.123279   19.832779   22.942464 H          1 MOL1         0.1025
      11    C3      20.535050   20.377090   21.360341 C.3        1 MOL1        -0.1243
      12    H8      20.769277   21.352207   21.810092 H          1 MOL1         0.1025
      13    H9      20.513250   20.541106   20.273766 H          1 MOL1         0.1025
      14    C4      21.670849   19.388617   21.709283 C.3        1 MOL1        -0.2258
      15    H10     21.660198   19.129644   22.776041 H          1 MOL1         0.1036
      16    H11     22.647588   19.836924   21.485324 H          1 MOL1         0.1036
      17    H12     21.597246   18.467015   21.120290 H          1 MOL1         0.1036
@<TRIPOS>BOND
    1     1     2    1
    2     1     3    1
    3     1     4    1
    4     1     5    1
    5     5     6    1
    6     5     7    1
    7     5     8    1
    8     8     9    1
    9     8    10    1
   10     8    11    1
   11    11    12    1
   12    11    13    1
   13    11    14    1
   14    14    15    1
   15    14    16    1
   16    14    17    1
@<TRIPOS>SUBSTRUCTURE
       1 MOL1            1 RESIDUE      1      MOL     
@<SCITEGIC>MOL_PROPERTY
VConf Rank
SciTegic.value.IntegerValue
484

@<SCITEGIC>MOL_PROPERTY
Conf_Id
SciTegic.value.IntegerValue
44

@<SCITEGIC>MOL_PROPERTY
Delta U+W
SciTegic.value.DoubleValue
2.712

@<SCITEGIC>MOL_PROPERTY
U+W
SciTegic.value.DoubleValue
-13.153

@<SCITEGIC>MOL_PROPERTY
Grad RMS
SciTegic.value.DoubleValue
0.000000

@<SCITEGIC>MOL_PROPERTY
U
SciTegic.value.DoubleValue
47.423

@<SCITEGIC>MOL_PROPERTY
W
SciTegic.value.DoubleValue
-60.576

@<SCITEGIC>MOL_PROPERTY
W(PB)
SciTegic.value.DoubleValue
-62.262

@<SCITEGIC>MOL_PROPERTY
W(SA)
SciTegic.value.DoubleValue
1.687

@<SCITEGIC>MOL_PROPERTY
Valence
SciTegic.value.DoubleValue
2.414

@<SCITEGIC>MOL_PROPERTY
Coulomb
SciTegic.value.DoubleValue
44.831

@<SCITEGIC>MOL_PROPERTY
VdW
SciTegic.value.DoubleValue
0.178

@<SCITEGIC>MOL_PROPERTY
VdW6
SciTegic.value.DoubleValue
-3.743

@<SCITEGIC>MOL_PROPERTY
VdW12
SciTegic.value.DoubleValue
3.922

@<SCITEGIC>MOL_PROPERTY
Bond
SciTegic.value.DoubleValue
0.138

@<SCITEGIC>MOL_PROPERTY
Angle
SciTegic.value.DoubleValue
0.941

@<SCITEGIC>MOL_PROPERTY
Pdih
SciTegic.value.DoubleValue
1.335

@<SCITEGIC>MOL_PROPERTY
Idih
SciTegic.value.DoubleValue
0.000

@<SCITEGIC>MOL_PROPERTY
Tether
SciTegic.value.DoubleValue
0.000

@<TRIPOS>MOLECULE
guest-1_confgen4.mol2 : confsearch ligand conformer 485
          17          16           1
SMALL
USER_CHARGES
 
@<TRIPOS>ATOM
       1    N1      20.449108   20.024929   23.239873 N.4        1 MOL1        -0.5891
       2    H1      21.131940   20.259455   22.513798 H          1 MOL1         0.3726
       3    H2      20.920026   19.411517   23.911692 H          1 MOL1         0.3726
       4    H3      20.228269   20.894779   23.735109 H          1 MOL1         0.3726
       5    C1      19.208133   19.377654   22.656029 C.3        1 MOL1         0.0314
       6    H4      18.740934   20.092989   21.974248 H          1 MOL1         0.0999
       7    H5      18.512074   19.190440   23.478216 H          1 MOL1         0.0999
       8    C2      19.486912   18.055420   21.911785 C.3        1 MOL1        -0.1308
       9    H6      19.918318   17.330325   22.614548 H          1 MOL1         0.1025
      10    H7      18.530009   17.629419   21.582143 H          1 MOL1         0.1025
      11    C3      20.425306   18.206692   20.688638 C.3        1 MOL1        -0.1243
      12    H8      20.576499   17.217457   20.234260 H          1 MOL1         0.1025
      13    H9      21.418234   18.545537   21.014111 H          1 MOL1         0.1025
      14    C4      19.871276   19.172484   19.616212 C.3        1 MOL1        -0.2258
      15    H10     18.878216   18.853922   19.273549 H          1 MOL1         0.1036
      16    H11     20.534519   19.198418   18.741910 H          1 MOL1         0.1036
      17    H12     19.788871   20.197327   19.999428 H          1 MOL1         0.1036
@<TRIPOS>BOND
    1     1     2    1
    2     1     3    1
    3     1     4    1
    4     1     5    1
    5     5     6    1
    6     5     7    1
    7     5     8    1
    8     8     9    1
    9     8    10    1
   10     8    11    1
   11    11    12    1
   12    11    13    1
   13    11    14    1
   14    14    15    1
   15    14    16    1
   16    14    17    1
@<TRIPOS>SUBSTRUCTURE
       1 MOL1            1 RESIDUE      1      MOL     
@<SCITEGIC>MOL_PROPERTY
VConf Rank
SciTegic.value.IntegerValue
485

@<SCITEGIC>MOL_PROPERTY
Conf_Id
SciTegic.value.IntegerValue
1

@<SCITEGIC>MOL_PROPERTY
Delta U+W
SciTegic.value.DoubleValue
0.685

@<SCITEGIC>MOL_PROPERTY
U+W
SciTegic.value.DoubleValue
-15.179

@<SCITEGIC>MOL_PROPERTY
Grad RMS
SciTegic.value.DoubleValue
0.000000

@<SCITEGIC>MOL_PROPERTY
U
SciTegic.value.DoubleValue
45.697

@<SCITEGIC>MOL_PROPERTY
W
SciTegic.value.DoubleValue
-60.876

@<SCITEGIC>MOL_PROPERTY
W(PB)
SciTegic.value.DoubleValue
-62.586

@<SCITEGIC>MOL_PROPERTY
W(SA)
SciTegic.value.DoubleValue
1.710

@<SCITEGIC>MOL_PROPERTY
Valence
SciTegic.value.DoubleValue
1.263

@<SCITEGIC>MOL_PROPERTY
Coulomb
SciTegic.value.DoubleValue
44.179

@<SCITEGIC>MOL_PROPERTY
VdW
SciTegic.value.DoubleValue
0.255

@<SCITEGIC>MOL_PROPERTY
VdW6
SciTegic.value.DoubleValue
-3.552

@<SCITEGIC>MOL_PROPERTY
VdW12
SciTegic.value.DoubleValue
3.807

@<SCITEGIC>MOL_PROPERTY
Bond
SciTegic.value.DoubleValue
0.125

@<SCITEGIC>MOL_PROPERTY
Angle
SciTegic.value.DoubleValue
0.616

@<SCITEGIC>MOL_PROPERTY
Pdih
SciTegic.value.DoubleValue
0.521

@<SCITEGIC>MOL_PROPERTY
Idih
SciTegic.value.DoubleValue
0.000

@<SCITEGIC>MOL_PROPERTY
Tether
SciTegic.value.DoubleValue
0.000

@<TRIPOS>MOLECULE
guest-1_confgen4.mol2 : confsearch ligand conformer 486
          17          16           1
SMALL
USER_CHARGES
 
@<TRIPOS>ATOM
       1    N1      18.739624   20.566436   21.177644 N.4        1 MOL1        -0.5891
       2    H1      17.750813   20.304971   21.234798 H          1 MOL1         0.3726
       3    H2      19.096434   20.208383   20.287176 H          1 MOL1         0.3726
       4    H3      18.774340   21.589476   21.124254 H          1 MOL1         0.3726
       5    C1      19.534149   20.035840   22.355377 C.3        1 MOL1         0.0314
       6    H4      19.124362   20.486284   23.263514 H          1 MOL1         0.0999
       7    H5      20.567950   20.374094   22.247464 H          1 MOL1         0.0999
       8    C2      19.500661   18.499179   22.487558 C.3        1 MOL1        -0.1308
       9    H6      20.044505   18.212995   23.397577 H          1 MOL1         0.1025
      10    H7      18.462841   18.172785   22.636370 H          1 MOL1         0.1025
      11    C3      20.106541   17.749197   21.275125 C.3        1 MOL1        -0.1243
      12    H8      19.516279   17.953311   20.371475 H          1 MOL1         0.1025
      13    H9      20.025860   16.667472   21.451948 H          1 MOL1         0.1025
      14    C4      21.588728   18.107241   21.020715 C.3        1 MOL1        -0.2258
      15    H10     21.994058   17.506079   20.196531 H          1 MOL1         0.1036
      16    H11     22.200548   17.910600   21.910701 H          1 MOL1         0.1036
      17    H12     21.708295   19.163699   20.749513 H          1 MOL1         0.1036
@<TRIPOS>BOND
    1     1     2    1
    2     1     3    1
    3     1     4    1
    4     1     5    1
    5     5     6    1
    6     5     7    1
    7     5     8    1
    8     8     9    1
    9     8    10    1
   10     8    11    1
   11    11    12    1
   12    11    13    1
   13    11    14    1
   14    14    15    1
   15    14    16    1
   16    14    17    1
@<TRIPOS>SUBSTRUCTURE
       1 MOL1            1 RESIDUE      1      MOL     
@<SCITEGIC>MOL_PROPERTY
VConf Rank
SciTegic.value.IntegerValue
486

@<SCITEGIC>MOL_PROPERTY
Conf_Id
SciTegic.value.IntegerValue
43

@<SCITEGIC>MOL_PROPERTY
Delta U+W
SciTegic.value.DoubleValue
0.642

@<SCITEGIC>MOL_PROPERTY
U+W
SciTegic.value.DoubleValue
-15.222

@<SCITEGIC>MOL_PROPERTY
Grad RMS
SciTegic.value.DoubleValue
0.000000

@<SCITEGIC>MOL_PROPERTY
U
SciTegic.value.DoubleValue
45.697

@<SCITEGIC>MOL_PROPERTY
W
SciTegic.value.DoubleValue
-60.919

@<SCITEGIC>MOL_PROPERTY
W(PB)
SciTegic.value.DoubleValue
-62.631

@<SCITEGIC>MOL_PROPERTY
W(SA)
SciTegic.value.DoubleValue
1.712

@<SCITEGIC>MOL_PROPERTY
Valence
SciTegic.value.DoubleValue
1.262

@<SCITEGIC>MOL_PROPERTY
Coulomb
SciTegic.value.DoubleValue
44.179

@<SCITEGIC>MOL_PROPERTY
VdW
SciTegic.value.DoubleValue
0.255

@<SCITEGIC>MOL_PROPERTY
VdW6
SciTegic.value.DoubleValue
-3.552

@<SCITEGIC>MOL_PROPERTY
VdW12
SciTegic.value.DoubleValue
3.807

@<SCITEGIC>MOL_PROPERTY
Bond
SciTegic.value.DoubleValue
0.125

@<SCITEGIC>MOL_PROPERTY
Angle
SciTegic.value.DoubleValue
0.616

@<SCITEGIC>MOL_PROPERTY
Pdih
SciTegic.value.DoubleValue
0.521

@<SCITEGIC>MOL_PROPERTY
Idih
SciTegic.value.DoubleValue
0.000

@<SCITEGIC>MOL_PROPERTY
Tether
SciTegic.value.DoubleValue
0.000

@<TRIPOS>MOLECULE
guest-1_confgen4.mol2 : confsearch ligand conformer 487
          17          16           1
SMALL
USER_CHARGES
 
@<TRIPOS>ATOM
       1    N1      21.597007   20.923002   22.257706 N.4        1 MOL1        -0.5891
       2    H1      21.885460   21.185080   21.310180 H          1 MOL1         0.3726
       3    H2      22.333245   20.322282   22.640833 H          1 MOL1         0.3726
       4    H3      21.596175   21.783023   22.815623 H          1 MOL1         0.3726
       5    C1      20.243365   20.241217   22.271157 C.3        1 MOL1         0.0314
       6    H4      19.505862   20.947282   21.879896 H          1 MOL1         0.0999
       7    H5      19.987352   20.019532   23.310790 H          1 MOL1         0.0999
       8    C2      20.208906   18.944473   21.441984 C.3        1 MOL1        -0.1308
       9    H6      20.481552   19.168475   20.402042 H          1 MOL1         0.1025
      10    H7      20.961272   18.243867   21.828100 H          1 MOL1         0.1025
      11    C3      18.813901   18.282760   21.482224 C.3        1 MOL1        -0.1243
      12    H8      18.059866   18.984790   21.098935 H          1 MOL1         0.1025
      13    H9      18.539028   18.061243   22.523233 H          1 MOL1         0.1025
      14    C4      18.771696   16.981309   20.652526 C.3        1 MOL1        -0.2258
      15    H10     17.773156   16.527160   20.693927 H          1 MOL1         0.1036
      16    H11     19.491724   16.245657   21.034080 H          1 MOL1         0.1036
      17    H12     19.008842   17.176496   19.598547 H          1 MOL1         0.1036
@<TRIPOS>BOND
    1     1     2    1
    2     1     3    1
    3     1     4    1
    4     1     5    1
    5     5     6    1
    6     5     7    1
    7     5     8    1
    8     8     9    1
    9     8    10    1
   10     8    11    1
   11    11    12    1
   12    11    13    1
   13    11    14    1
   14    14    15    1
   15    14    16    1
   16    14    17    1
@<TRIPOS>SUBSTRUCTURE
       1 MOL1            1 RESIDUE      1      MOL     
@<SCITEGIC>MOL_PROPERTY
VConf Rank
SciTegic.value.IntegerValue
487

@<SCITEGIC>MOL_PROPERTY
Conf_Id
SciTegic.value.IntegerValue
7

@<SCITEGIC>MOL_PROPERTY
Delta U+W
SciTegic.value.DoubleValue
0.000

@<SCITEGIC>MOL_PROPERTY
U+W
SciTegic.value.DoubleValue
-15.865

@<SCITEGIC>MOL_PROPERTY
Grad RMS
SciTegic.value.DoubleValue
0.000000

@<SCITEGIC>MOL_PROPERTY
U
SciTegic.value.DoubleValue
44.664

@<SCITEGIC>MOL_PROPERTY
W
SciTegic.value.DoubleValue
-60.529

@<SCITEGIC>MOL_PROPERTY
W(PB)
SciTegic.value.DoubleValue
-62.309

@<SCITEGIC>MOL_PROPERTY
W(SA)
SciTegic.value.DoubleValue
1.780

@<SCITEGIC>MOL_PROPERTY
Valence
SciTegic.value.DoubleValue
0.872

@<SCITEGIC>MOL_PROPERTY
Coulomb
SciTegic.value.DoubleValue
43.648

@<SCITEGIC>MOL_PROPERTY
VdW
SciTegic.value.DoubleValue
0.144

@<SCITEGIC>MOL_PROPERTY
VdW6
SciTegic.value.DoubleValue
-2.370

@<SCITEGIC>MOL_PROPERTY
VdW12
SciTegic.value.DoubleValue
2.515

@<SCITEGIC>MOL_PROPERTY
Bond
SciTegic.value.DoubleValue
0.080

@<SCITEGIC>MOL_PROPERTY
Angle
SciTegic.value.DoubleValue
0.376

@<SCITEGIC>MOL_PROPERTY
Pdih
SciTegic.value.DoubleValue
0.416

@<SCITEGIC>MOL_PROPERTY
Idih
SciTegic.value.DoubleValue
0.000

@<SCITEGIC>MOL_PROPERTY
Tether
SciTegic.value.DoubleValue
0.000

@<TRIPOS>MOLECULE
guest-1_confgen4.mol2 : confsearch ligand conformer 488
          17          16           1
SMALL
USER_CHARGES
 
@<TRIPOS>ATOM
       1    N1      21.777868   17.552345   21.776779 N.4        1 MOL1        -0.5891
       2    H1      22.639889   18.046007   21.526047 H          1 MOL1         0.3726
       3    H2      21.530325   16.956409   20.981021 H          1 MOL1         0.3726
       4    H3      22.010456   16.926557   22.554683 H          1 MOL1         0.3726
       5    C1      20.659865   18.509774   22.138377 C.3        1 MOL1         0.0314
       6    H4      20.979429   19.089208   23.008747 H          1 MOL1         0.0999
       7    H5      19.787829   17.915495   22.423375 H          1 MOL1         0.0999
       8    C2      20.284494   19.465752   20.989829 C.3        1 MOL1        -0.1308
       9    H6      21.176382   20.028883   20.684385 H          1 MOL1         0.1025
      10    H7      19.965134   18.883724   20.115105 H          1 MOL1         0.1025
      11    C3      19.170150   20.463162   21.384055 C.3        1 MOL1        -0.1243
      12    H8      19.007782   21.163748   20.552913 H          1 MOL1         0.1025
      13    H9      19.501394   21.069631   22.238839 H          1 MOL1         0.1025
      14    C4      17.831940   19.769365   21.727273 C.3        1 MOL1        -0.2258
      15    H10     17.481405   19.151196   20.890543 H          1 MOL1         0.1036
      16    H11     17.055321   20.515240   21.940673 H          1 MOL1         0.1036
      17    H12     17.925717   19.127277   22.612157 H          1 MOL1         0.1036
@<TRIPOS>BOND
    1     1     2    1
    2     1     3    1
    3     1     4    1
    4     1     5    1
    5     5     6    1
    6     5     7    1
    7     5     8    1
    8     8     9    1
    9     8    10    1
   10     8    11    1
   11    11    12    1
   12    11    13    1
   13    11    14    1
   14    14    15    1
   15    14    16    1
   16    14    17    1
@<TRIPOS>SUBSTRUCTURE
       1 MOL1            1 RESIDUE      1      MOL     
@<SCITEGIC>MOL_PROPERTY
VConf Rank
SciTegic.value.IntegerValue
488

@<SCITEGIC>MOL_PROPERTY
Conf_Id
SciTegic.value.IntegerValue
36

@<SCITEGIC>MOL_PROPERTY
Delta U+W
SciTegic.value.DoubleValue
0.275

@<SCITEGIC>MOL_PROPERTY
U+W
SciTegic.value.DoubleValue
-15.590

@<SCITEGIC>MOL_PROPERTY
Grad RMS
SciTegic.value.DoubleValue
0.000000

@<SCITEGIC>MOL_PROPERTY
U
SciTegic.value.DoubleValue
45.174

@<SCITEGIC>MOL_PROPERTY
W
SciTegic.value.DoubleValue
-60.765

@<SCITEGIC>MOL_PROPERTY
W(PB)
SciTegic.value.DoubleValue
-62.518

@<SCITEGIC>MOL_PROPERTY
W(SA)
SciTegic.value.DoubleValue
1.754

@<SCITEGIC>MOL_PROPERTY
Valence
SciTegic.value.DoubleValue
1.161

@<SCITEGIC>MOL_PROPERTY
Coulomb
SciTegic.value.DoubleValue
43.789

@<SCITEGIC>MOL_PROPERTY
VdW
SciTegic.value.DoubleValue
0.224

@<SCITEGIC>MOL_PROPERTY
VdW6
SciTegic.value.DoubleValue
-2.897

@<SCITEGIC>MOL_PROPERTY
VdW12
SciTegic.value.DoubleValue
3.121

@<SCITEGIC>MOL_PROPERTY
Bond
SciTegic.value.DoubleValue
0.100

@<SCITEGIC>MOL_PROPERTY
Angle
SciTegic.value.DoubleValue
0.500

@<SCITEGIC>MOL_PROPERTY
Pdih
SciTegic.value.DoubleValue
0.561

@<SCITEGIC>MOL_PROPERTY
Idih
SciTegic.value.DoubleValue
0.000

@<SCITEGIC>MOL_PROPERTY
Tether
SciTegic.value.DoubleValue
0.000

@<TRIPOS>MOLECULE
guest-1_confgen4.mol2 : confsearch ligand conformer 489
          17          16           1
SMALL
USER_CHARGES
 
@<TRIPOS>ATOM
       1    N1      21.135239   18.887611   23.020203 N.4        1 MOL1        -0.5891
       2    H1      20.771027   19.837081   22.907509 H          1 MOL1         0.3726
       3    H2      22.069997   18.871774   22.601327 H          1 MOL1         0.3726
       4    H3      21.257207   18.727723   24.025380 H          1 MOL1         0.3726
       5    C1      20.218642   17.855554   22.391920 C.3        1 MOL1         0.0314
       6    H4      19.262354   17.870863   22.921618 H          1 MOL1         0.0999
       7    H5      20.679345   16.877394   22.554686 H          1 MOL1         0.0999
       8    C2      19.981522   18.054265   20.880000 C.3        1 MOL1        -0.1308
       9    H6      20.930143   18.287351   20.378485 H          1 MOL1         0.1025
      10    H7      19.649058   17.093873   20.464114 H          1 MOL1         0.1025
      11    C3      18.911445   19.120305   20.531866 C.3        1 MOL1        -0.1243
      12    H8      17.950743   18.842200   20.987641 H          1 MOL1         0.1025
      13    H9      18.747980   19.104431   19.445120 H          1 MOL1         0.1025
      14    C4      19.283416   20.560275   20.952589 C.3        1 MOL1        -0.2258
      15    H10     19.254647   20.681362   22.041710 H          1 MOL1         0.1036
      16    H11     18.567562   21.277147   20.529738 H          1 MOL1         0.1036
      17    H12     20.282871   20.835508   20.591355 H          1 MOL1         0.1036
@<TRIPOS>BOND
    1     1     2    1
    2     1     3    1
    3     1     4    1
    4     1     5    1
    5     5     6    1
    6     5     7    1
    7     5     8    1
    8     8     9    1
    9     8    10    1
   10     8    11    1
   11    11    12    1
   12    11    13    1
   13    11    14    1
   14    14    15    1
   15    14    16    1
   16    14    17    1
@<TRIPOS>SUBSTRUCTURE
       1 MOL1            1 RESIDUE      1      MOL     
@<SCITEGIC>MOL_PROPERTY
VConf Rank
SciTegic.value.IntegerValue
489

@<SCITEGIC>MOL_PROPERTY
Conf_Id
SciTegic.value.IntegerValue
19

@<SCITEGIC>MOL_PROPERTY
Delta U+W
SciTegic.value.DoubleValue
2.662

@<SCITEGIC>MOL_PROPERTY
U+W
SciTegic.value.DoubleValue
-13.203

@<SCITEGIC>MOL_PROPERTY
Grad RMS
SciTegic.value.DoubleValue
0.000000

@<SCITEGIC>MOL_PROPERTY
U
SciTegic.value.DoubleValue
47.423

@<SCITEGIC>MOL_PROPERTY
W
SciTegic.value.DoubleValue
-60.626

@<SCITEGIC>MOL_PROPERTY
W(PB)
SciTegic.value.DoubleValue
-62.328

@<SCITEGIC>MOL_PROPERTY
W(SA)
SciTegic.value.DoubleValue
1.702

@<SCITEGIC>MOL_PROPERTY
Valence
SciTegic.value.DoubleValue
2.414

@<SCITEGIC>MOL_PROPERTY
Coulomb
SciTegic.value.DoubleValue
44.831

@<SCITEGIC>MOL_PROPERTY
VdW
SciTegic.value.DoubleValue
0.178

@<SCITEGIC>MOL_PROPERTY
VdW6
SciTegic.value.DoubleValue
-3.743

@<SCITEGIC>MOL_PROPERTY
VdW12
SciTegic.value.DoubleValue
3.921

@<SCITEGIC>MOL_PROPERTY
Bond
SciTegic.value.DoubleValue
0.138

@<SCITEGIC>MOL_PROPERTY
Angle
SciTegic.value.DoubleValue
0.941

@<SCITEGIC>MOL_PROPERTY
Pdih
SciTegic.value.DoubleValue
1.335

@<SCITEGIC>MOL_PROPERTY
Idih
SciTegic.value.DoubleValue
0.000

@<SCITEGIC>MOL_PROPERTY
Tether
SciTegic.value.DoubleValue
0.000

@<TRIPOS>MOLECULE
guest-1_confgen4.mol2 : confsearch ligand conformer 490
          17          16           1
SMALL
USER_CHARGES
 
@<TRIPOS>ATOM
       1    N1      20.112545   18.410010   23.325701 N.4        1 MOL1        -0.5891
       2    H1      19.660769   18.023679   24.160848 H          1 MOL1         0.3726
       3    H2      21.074832   18.642508   23.589192 H          1 MOL1         0.3726
       4    H3      20.163304   17.657423   22.634411 H          1 MOL1         0.3726
       5    C1      19.367946   19.617256   22.788888 C.3        1 MOL1         0.0314
       6    H4      19.361783   20.368456   23.583367 H          1 MOL1         0.0999
       7    H5      18.332676   19.327554   22.589914 H          1 MOL1         0.0999
       8    C2      19.991111   20.233838   21.518808 C.3        1 MOL1        -0.1308
       9    H6      19.636156   21.270066   21.440801 H          1 MOL1         0.1025
      10    H7      21.081910   20.296613   21.628111 H          1 MOL1         0.1025
      11    C3      19.622322   19.503430   20.202296 C.3        1 MOL1        -0.1243
      12    H8      20.027685   20.082029   19.360337 H          1 MOL1         0.1025
      13    H9      18.530842   19.503092   20.073096 H          1 MOL1         0.1025
      14    C4      20.152904   18.055030   20.104832 C.3        1 MOL1        -0.2258
      15    H10     21.227702   18.008655   20.323487 H          1 MOL1         0.1036
      16    H11     20.002233   17.662034   19.090925 H          1 MOL1         0.1036
      17    H12     19.622491   17.385175   20.791590 H          1 MOL1         0.1036
@<TRIPOS>BOND
    1     1     2    1
    2     1     3    1
    3     1     4    1
    4     1     5    1
    5     5     6    1
    6     5     7    1
    7     5     8    1
    8     8     9    1
    9     8    10    1
   10     8    11    1
   11    11    12    1
   12    11    13    1
   13    11    14    1
   14    14    15    1
   15    14    16    1
   16    14    17    1
@<TRIPOS>SUBSTRUCTURE
       1 MOL1            1 RESIDUE      1      MOL     
@<SCITEGIC>MOL_PROPERTY
VConf Rank
SciTegic.value.IntegerValue
490

@<SCITEGIC>MOL_PROPERTY
Conf_Id
SciTegic.value.IntegerValue
44

@<SCITEGIC>MOL_PROPERTY
Delta U+W
SciTegic.value.DoubleValue
2.712

@<SCITEGIC>MOL_PROPERTY
U+W
SciTegic.value.DoubleValue
-13.153

@<SCITEGIC>MOL_PROPERTY
Grad RMS
SciTegic.value.DoubleValue
0.000000

@<SCITEGIC>MOL_PROPERTY
U
SciTegic.value.DoubleValue
47.423

@<SCITEGIC>MOL_PROPERTY
W
SciTegic.value.DoubleValue
-60.576

@<SCITEGIC>MOL_PROPERTY
W(PB)
SciTegic.value.DoubleValue
-62.262

@<SCITEGIC>MOL_PROPERTY
W(SA)
SciTegic.value.DoubleValue
1.687

@<SCITEGIC>MOL_PROPERTY
Valence
SciTegic.value.DoubleValue
2.414

@<SCITEGIC>MOL_PROPERTY
Coulomb
SciTegic.value.DoubleValue
44.831

@<SCITEGIC>MOL_PROPERTY
VdW
SciTegic.value.DoubleValue
0.178

@<SCITEGIC>MOL_PROPERTY
VdW6
SciTegic.value.DoubleValue
-3.743

@<SCITEGIC>MOL_PROPERTY
VdW12
SciTegic.value.DoubleValue
3.922

@<SCITEGIC>MOL_PROPERTY
Bond
SciTegic.value.DoubleValue
0.138

@<SCITEGIC>MOL_PROPERTY
Angle
SciTegic.value.DoubleValue
0.941

@<SCITEGIC>MOL_PROPERTY
Pdih
SciTegic.value.DoubleValue
1.335

@<SCITEGIC>MOL_PROPERTY
Idih
SciTegic.value.DoubleValue
0.000

@<SCITEGIC>MOL_PROPERTY
Tether
SciTegic.value.DoubleValue
0.000

@<TRIPOS>MOLECULE
guest-1_confgen4.mol2 : confsearch ligand conformer 491
          17          16           1
SMALL
USER_CHARGES
 
@<TRIPOS>ATOM
       1    N1      18.465014   20.380113   21.781424 N.4        1 MOL1        -0.5891
       2    H1      18.724246   20.086785   22.727576 H          1 MOL1         0.3726
       3    H2      17.548133   19.971023   21.578068 H          1 MOL1         0.3726
       4    H3      18.338037   21.396901   21.807631 H          1 MOL1         0.3726
       5    C1      19.507528   19.968056   20.760037 C.3        1 MOL1         0.0314
       6    H4      20.448748   20.460309   21.018100 H          1 MOL1         0.0999
       7    H5      19.185608   20.344453   19.785239 H          1 MOL1         0.0999
       8    C2      19.724842   18.443259   20.672354 C.3        1 MOL1        -0.1308
       9    H6      18.784424   17.961812   20.373070 H          1 MOL1         0.1025
      10    H7      20.443432   18.236562   19.868172 H          1 MOL1         0.1025
      11    C3      20.234339   17.802840   21.987585 C.3        1 MOL1        -0.1243
      12    H8      20.344869   16.720169   21.834248 H          1 MOL1         0.1025
      13    H9      19.483744   17.921406   22.780808 H          1 MOL1         0.1025
      14    C4      21.586909   18.383801   22.459641 C.3        1 MOL1        -0.2258
      15    H10     22.355237   18.276029   21.683029 H          1 MOL1         0.1036
      16    H11     21.940508   17.857165   23.355515 H          1 MOL1         0.1036
      17    H12     21.503023   19.448081   22.713055 H          1 MOL1         0.1036
@<TRIPOS>BOND
    1     1     2    1
    2     1     3    1
    3     1     4    1
    4     1     5    1
    5     5     6    1
    6     5     7    1
    7     5     8    1
    8     8     9    1
    9     8    10    1
   10     8    11    1
   11    11    12    1
   12    11    13    1
   13    11    14    1
   14    14    15    1
   15    14    16    1
   16    14    17    1
@<TRIPOS>SUBSTRUCTURE
       1 MOL1            1 RESIDUE      1      MOL     
@<SCITEGIC>MOL_PROPERTY
VConf Rank
SciTegic.value.IntegerValue
491

@<SCITEGIC>MOL_PROPERTY
Conf_Id
SciTegic.value.IntegerValue
1

@<SCITEGIC>MOL_PROPERTY
Delta U+W
SciTegic.value.DoubleValue
0.685

@<SCITEGIC>MOL_PROPERTY
U+W
SciTegic.value.DoubleValue
-15.179

@<SCITEGIC>MOL_PROPERTY
Grad RMS
SciTegic.value.DoubleValue
0.000000

@<SCITEGIC>MOL_PROPERTY
U
SciTegic.value.DoubleValue
45.697

@<SCITEGIC>MOL_PROPERTY
W
SciTegic.value.DoubleValue
-60.876

@<SCITEGIC>MOL_PROPERTY
W(PB)
SciTegic.value.DoubleValue
-62.586

@<SCITEGIC>MOL_PROPERTY
W(SA)
SciTegic.value.DoubleValue
1.710

@<SCITEGIC>MOL_PROPERTY
Valence
SciTegic.value.DoubleValue
1.263

@<SCITEGIC>MOL_PROPERTY
Coulomb
SciTegic.value.DoubleValue
44.179

@<SCITEGIC>MOL_PROPERTY
VdW
SciTegic.value.DoubleValue
0.255

@<SCITEGIC>MOL_PROPERTY
VdW6
SciTegic.value.DoubleValue
-3.552

@<SCITEGIC>MOL_PROPERTY
VdW12
SciTegic.value.DoubleValue
3.807

@<SCITEGIC>MOL_PROPERTY
Bond
SciTegic.value.DoubleValue
0.125

@<SCITEGIC>MOL_PROPERTY
Angle
SciTegic.value.DoubleValue
0.616

@<SCITEGIC>MOL_PROPERTY
Pdih
SciTegic.value.DoubleValue
0.521

@<SCITEGIC>MOL_PROPERTY
Idih
SciTegic.value.DoubleValue
0.000

@<SCITEGIC>MOL_PROPERTY
Tether
SciTegic.value.DoubleValue
0.000

@<TRIPOS>MOLECULE
guest-1_confgen4.mol2 : confsearch ligand conformer 492
          17          16           1
SMALL
USER_CHARGES
 
@<TRIPOS>ATOM
       1    N1      18.289864   19.824876   20.800768 N.4        1 MOL1        -0.5891
       2    H1      17.483127   19.731576   21.425146 H          1 MOL1         0.3726
       3    H2      18.432323   18.915464   20.352299 H          1 MOL1         0.3726
       4    H3      18.020541   20.483443   20.062918 H          1 MOL1         0.3726
       5    C1      19.529488   20.285589   21.543016 C.3        1 MOL1         0.0314
       6    H4      19.318876   21.273348   21.961959 H          1 MOL1         0.0999
       7    H5      20.339734   20.392374   20.817134 H          1 MOL1         0.0999
       8    C2      19.967348   19.333451   22.675108 C.3        1 MOL1        -0.1308
       9    H6      20.827230   19.777124   23.194300 H          1 MOL1         0.1025
      10    H7      19.163057   19.264757   23.419518 H          1 MOL1         0.1025
      11    C3      20.343130   17.910583   22.191589 C.3        1 MOL1        -0.1243
      12    H8      19.465914   17.417527   21.751085 H          1 MOL1         0.1025
      13    H9      20.625946   17.303912   23.063294 H          1 MOL1         0.1025
      14    C4      21.508602   17.904304   21.175994 C.3        1 MOL1        -0.2258
      15    H10     21.783476   16.874948   20.911725 H          1 MOL1         0.1036
      16    H11     22.398998   18.391555   21.594142 H          1 MOL1         0.1036
      17    H12     21.238333   18.423208   20.247746 H          1 MOL1         0.1036
@<TRIPOS>BOND
    1     1     2    1
    2     1     3    1
    3     1     4    1
    4     1     5    1
    5     5     6    1
    6     5     7    1
    7     5     8    1
    8     8     9    1
    9     8    10    1
   10     8    11    1
   11    11    12    1
   12    11    13    1
   13    11    14    1
   14    14    15    1
   15    14    16    1
   16    14    17    1
@<TRIPOS>SUBSTRUCTURE
       1 MOL1            1 RESIDUE      1      MOL     
@<SCITEGIC>MOL_PROPERTY
VConf Rank
SciTegic.value.IntegerValue
492

@<SCITEGIC>MOL_PROPERTY
Conf_Id
SciTegic.value.IntegerValue
43

@<SCITEGIC>MOL_PROPERTY
Delta U+W
SciTegic.value.DoubleValue
0.642

@<SCITEGIC>MOL_PROPERTY
U+W
SciTegic.value.DoubleValue
-15.222

@<SCITEGIC>MOL_PROPERTY
Grad RMS
SciTegic.value.DoubleValue
0.000000

@<SCITEGIC>MOL_PROPERTY
U
SciTegic.value.DoubleValue
45.697

@<SCITEGIC>MOL_PROPERTY
W
SciTegic.value.DoubleValue
-60.919

@<SCITEGIC>MOL_PROPERTY
W(PB)
SciTegic.value.DoubleValue
-62.631

@<SCITEGIC>MOL_PROPERTY
W(SA)
SciTegic.value.DoubleValue
1.712

@<SCITEGIC>MOL_PROPERTY
Valence
SciTegic.value.DoubleValue
1.262

@<SCITEGIC>MOL_PROPERTY
Coulomb
SciTegic.value.DoubleValue
44.179

@<SCITEGIC>MOL_PROPERTY
VdW
SciTegic.value.DoubleValue
0.255

@<SCITEGIC>MOL_PROPERTY
VdW6
SciTegic.value.DoubleValue
-3.552

@<SCITEGIC>MOL_PROPERTY
VdW12
SciTegic.value.DoubleValue
3.807

@<SCITEGIC>MOL_PROPERTY
Bond
SciTegic.value.DoubleValue
0.125

@<SCITEGIC>MOL_PROPERTY
Angle
SciTegic.value.DoubleValue
0.616

@<SCITEGIC>MOL_PROPERTY
Pdih
SciTegic.value.DoubleValue
0.521

@<SCITEGIC>MOL_PROPERTY
Idih
SciTegic.value.DoubleValue
0.000

@<SCITEGIC>MOL_PROPERTY
Tether
SciTegic.value.DoubleValue
0.000

@<TRIPOS>MOLECULE
guest-1_confgen4.mol2 : confsearch ligand conformer 493
          17          16           1
SMALL
USER_CHARGES
 
@<TRIPOS>ATOM
       1    N1      17.422621   19.438696   21.443136 N.4        1 MOL1        -0.5891
       2    H1      17.135890   18.680615   22.069869 H          1 MOL1         0.3726
       3    H2      17.298012   19.099607   20.484393 H          1 MOL1         0.3726
       4    H3      16.752387   20.202828   21.576540 H          1 MOL1         0.3726
       5    C1      18.846697   19.885690   21.706881 C.3        1 MOL1         0.0314
       6    H4      18.898099   20.261542   22.732365 H          1 MOL1         0.0999
       7    H5      19.072421   20.712130   21.027491 H          1 MOL1         0.0999
       8    C2      19.880819   18.761320   21.515452 C.3        1 MOL1        -0.1308
       9    H6      19.641924   17.926851   22.188195 H          1 MOL1         0.1025
      10    H7      19.815751   18.375994   20.489158 H          1 MOL1         0.1025
      11    C3      21.316521   19.258176   21.793684 C.3        1 MOL1        -0.1243
      12    H8      21.381436   19.647072   22.819780 H          1 MOL1         0.1025
      13    H9      21.555083   20.095611   21.122776 H          1 MOL1         0.1025
      14    C4      22.359428   18.135589   21.603692 C.3        1 MOL1        -0.2258
      15    H10     23.371893   18.508515   21.805902 H          1 MOL1         0.1036
      16    H11     22.342243   17.749757   20.576052 H          1 MOL1         0.1036
      17    H12     22.167180   17.297652   22.286415 H          1 MOL1         0.1036
@<TRIPOS>BOND
    1     1     2    1
    2     1     3    1
    3     1     4    1
    4     1     5    1
    5     5     6    1
    6     5     7    1
    7     5     8    1
    8     8     9    1
    9     8    10    1
   10     8    11    1
   11    11    12    1
   12    11    13    1
   13    11    14    1
   14    14    15    1
   15    14    16    1
   16    14    17    1
@<TRIPOS>SUBSTRUCTURE
       1 MOL1            1 RESIDUE      1      MOL     
@<SCITEGIC>MOL_PROPERTY
VConf Rank
SciTegic.value.IntegerValue
493

@<SCITEGIC>MOL_PROPERTY
Conf_Id
SciTegic.value.IntegerValue
7

@<SCITEGIC>MOL_PROPERTY
Delta U+W
SciTegic.value.DoubleValue
0.000

@<SCITEGIC>MOL_PROPERTY
U+W
SciTegic.value.DoubleValue
-15.865

@<SCITEGIC>MOL_PROPERTY
Grad RMS
SciTegic.value.DoubleValue
0.000000

@<SCITEGIC>MOL_PROPERTY
U
SciTegic.value.DoubleValue
44.664

@<SCITEGIC>MOL_PROPERTY
W
SciTegic.value.DoubleValue
-60.529

@<SCITEGIC>MOL_PROPERTY
W(PB)
SciTegic.value.DoubleValue
-62.309

@<SCITEGIC>MOL_PROPERTY
W(SA)
SciTegic.value.DoubleValue
1.780

@<SCITEGIC>MOL_PROPERTY
Valence
SciTegic.value.DoubleValue
0.872

@<SCITEGIC>MOL_PROPERTY
Coulomb
SciTegic.value.DoubleValue
43.648

@<SCITEGIC>MOL_PROPERTY
VdW
SciTegic.value.DoubleValue
0.144

@<SCITEGIC>MOL_PROPERTY
VdW6
SciTegic.value.DoubleValue
-2.370

@<SCITEGIC>MOL_PROPERTY
VdW12
SciTegic.value.DoubleValue
2.515

@<SCITEGIC>MOL_PROPERTY
Bond
SciTegic.value.DoubleValue
0.080

@<SCITEGIC>MOL_PROPERTY
Angle
SciTegic.value.DoubleValue
0.376

@<SCITEGIC>MOL_PROPERTY
Pdih
SciTegic.value.DoubleValue
0.416

@<SCITEGIC>MOL_PROPERTY
Idih
SciTegic.value.DoubleValue
0.000

@<SCITEGIC>MOL_PROPERTY
Tether
SciTegic.value.DoubleValue
0.000

@<TRIPOS>MOLECULE
guest-1_confgen4.mol2 : confsearch ligand conformer 494
          17          16           1
SMALL
USER_CHARGES
 
@<TRIPOS>ATOM
       1    N1      18.530297   17.138578   21.821848 N.4        1 MOL1        -0.5891
       2    H1      17.938270   17.241890   22.651595 H          1 MOL1         0.3726
       3    H2      19.265372   16.465429   22.058875 H          1 MOL1         0.3726
       4    H3      17.951199   16.702179   21.097249 H          1 MOL1         0.3726
       5    C1      19.101983   18.465368   21.363418 C.3        1 MOL1         0.0314
       6    H4      18.266989   19.120137   21.099844 H          1 MOL1         0.0999
       7    H5      19.692628   18.283025   20.461904 H          1 MOL1         0.0999
       8    C2      19.978978   19.149100   22.429884 C.3        1 MOL1        -0.1308
       9    H6      19.388058   19.291301   23.344471 H          1 MOL1         0.1025
      10    H7      20.816679   18.490750   22.695819 H          1 MOL1         0.1025
      11    C3      20.523999   20.519706   21.964701 C.3        1 MOL1        -0.1243
      12    H8      21.070585   20.987197   22.795771 H          1 MOL1         0.1025
      13    H9      19.686001   21.191110   21.729842 H          1 MOL1         0.1025
      14    C4      21.462477   20.412982   20.740843 C.3        1 MOL1        -0.2258
      15    H10     22.306404   19.741986   20.947425 H          1 MOL1         0.1036
      16    H11     21.873216   21.397962   20.483716 H          1 MOL1         0.1036
      17    H12     20.932247   20.035073   19.857593 H          1 MOL1         0.1036
@<TRIPOS>BOND
    1     1     2    1
    2     1     3    1
    3     1     4    1
    4     1     5    1
    5     5     6    1
    6     5     7    1
    7     5     8    1
    8     8     9    1
    9     8    10    1
   10     8    11    1
   11    11    12    1
   12    11    13    1
   13    11    14    1
   14    14    15    1
   15    14    16    1
   16    14    17    1
@<TRIPOS>SUBSTRUCTURE
       1 MOL1            1 RESIDUE      1      MOL     
@<SCITEGIC>MOL_PROPERTY
VConf Rank
SciTegic.value.IntegerValue
494

@<SCITEGIC>MOL_PROPERTY
Conf_Id
SciTegic.value.IntegerValue
36

@<SCITEGIC>MOL_PROPERTY
Delta U+W
SciTegic.value.DoubleValue
0.275

@<SCITEGIC>MOL_PROPERTY
U+W
SciTegic.value.DoubleValue
-15.590

@<SCITEGIC>MOL_PROPERTY
Grad RMS
SciTegic.value.DoubleValue
0.000000

@<SCITEGIC>MOL_PROPERTY
U
SciTegic.value.DoubleValue
45.174

@<SCITEGIC>MOL_PROPERTY
W
SciTegic.value.DoubleValue
-60.765

@<SCITEGIC>MOL_PROPERTY
W(PB)
SciTegic.value.DoubleValue
-62.518

@<SCITEGIC>MOL_PROPERTY
W(SA)
SciTegic.value.DoubleValue
1.754

@<SCITEGIC>MOL_PROPERTY
Valence
SciTegic.value.DoubleValue
1.161

@<SCITEGIC>MOL_PROPERTY
Coulomb
SciTegic.value.DoubleValue
43.789

@<SCITEGIC>MOL_PROPERTY
VdW
SciTegic.value.DoubleValue
0.224

@<SCITEGIC>MOL_PROPERTY
VdW6
SciTegic.value.DoubleValue
-2.897

@<SCITEGIC>MOL_PROPERTY
VdW12
SciTegic.value.DoubleValue
3.121

@<SCITEGIC>MOL_PROPERTY
Bond
SciTegic.value.DoubleValue
0.100

@<SCITEGIC>MOL_PROPERTY
Angle
SciTegic.value.DoubleValue
0.500

@<SCITEGIC>MOL_PROPERTY
Pdih
SciTegic.value.DoubleValue
0.561

@<SCITEGIC>MOL_PROPERTY
Idih
SciTegic.value.DoubleValue
0.000

@<SCITEGIC>MOL_PROPERTY
Tether
SciTegic.value.DoubleValue
0.000

@<TRIPOS>MOLECULE
guest-1_confgen4.mol2 : confsearch ligand conformer 495
          17          16           1
SMALL
USER_CHARGES
 
@<TRIPOS>ATOM
       1    N1      19.890142   17.288738   22.354814 N.4        1 MOL1        -0.5891
       2    H1      20.075213   17.244122   21.349527 H          1 MOL1         0.3726
       3    H2      18.899086   17.066672   22.488880 H          1 MOL1         0.3726
       4    H3      20.426082   16.533790   22.794865 H          1 MOL1         0.3726
       5    C1      20.246928   18.644817   22.932555 C.3        1 MOL1         0.0314
       6    H4      21.323880   18.797666   22.822497 H          1 MOL1         0.0999
       7    H5      20.018532   18.607263   24.001182 H          1 MOL1         0.0999
       8    C2      19.484037   19.825998   22.296613 C.3        1 MOL1        -0.1308
       9    H6      18.422958   19.568620   22.180011 H          1 MOL1         0.1025
      10    H7      19.514428   20.664524   23.004989 H          1 MOL1         0.1025
      11    C3      20.070462   20.319045   20.949128 C.3        1 MOL1        -0.1243
      12    H8      21.113874   20.633081   21.092978 H          1 MOL1         0.1025
      13    H9      19.521564   21.220369   20.642020 H          1 MOL1         0.1025
      14    C4      19.997381   19.284098   19.803516 C.3        1 MOL1        -0.2258
      15    H10     20.694744   18.454071   19.966042 H          1 MOL1         0.1036
      16    H11     20.271208   19.752770   18.849304 H          1 MOL1         0.1036
      17    H12     18.982678   18.879072   19.696341 H          1 MOL1         0.1036
@<TRIPOS>BOND
    1     1     2    1
    2     1     3    1
    3     1     4    1
    4     1     5    1
    5     5     6    1
    6     5     7    1
    7     5     8    1
    8     8     9    1
    9     8    10    1
   10     8    11    1
   11    11    12    1
   12    11    13    1
   13    11    14    1
   14    14    15    1
   15    14    16    1
   16    14    17    1
@<TRIPOS>SUBSTRUCTURE
       1 MOL1            1 RESIDUE      1      MOL     
@<SCITEGIC>MOL_PROPERTY
VConf Rank
SciTegic.value.IntegerValue
495

@<SCITEGIC>MOL_PROPERTY
Conf_Id
SciTegic.value.IntegerValue
19

@<SCITEGIC>MOL_PROPERTY
Delta U+W
SciTegic.value.DoubleValue
2.662

@<SCITEGIC>MOL_PROPERTY
U+W
SciTegic.value.DoubleValue
-13.203

@<SCITEGIC>MOL_PROPERTY
Grad RMS
SciTegic.value.DoubleValue
0.000000

@<SCITEGIC>MOL_PROPERTY
U
SciTegic.value.DoubleValue
47.423

@<SCITEGIC>MOL_PROPERTY
W
SciTegic.value.DoubleValue
-60.626

@<SCITEGIC>MOL_PROPERTY
W(PB)
SciTegic.value.DoubleValue
-62.328

@<SCITEGIC>MOL_PROPERTY
W(SA)
SciTegic.value.DoubleValue
1.702

@<SCITEGIC>MOL_PROPERTY
Valence
SciTegic.value.DoubleValue
2.414

@<SCITEGIC>MOL_PROPERTY
Coulomb
SciTegic.value.DoubleValue
44.831

@<SCITEGIC>MOL_PROPERTY
VdW
SciTegic.value.DoubleValue
0.178

@<SCITEGIC>MOL_PROPERTY
VdW6
SciTegic.value.DoubleValue
-3.743

@<SCITEGIC>MOL_PROPERTY
VdW12
SciTegic.value.DoubleValue
3.921

@<SCITEGIC>MOL_PROPERTY
Bond
SciTegic.value.DoubleValue
0.138

@<SCITEGIC>MOL_PROPERTY
Angle
SciTegic.value.DoubleValue
0.941

@<SCITEGIC>MOL_PROPERTY
Pdih
SciTegic.value.DoubleValue
1.335

@<SCITEGIC>MOL_PROPERTY
Idih
SciTegic.value.DoubleValue
0.000

@<SCITEGIC>MOL_PROPERTY
Tether
SciTegic.value.DoubleValue
0.000

@<TRIPOS>MOLECULE
guest-1_confgen4.mol2 : confsearch ligand conformer 496
          17          16           1
SMALL
USER_CHARGES
 
@<TRIPOS>ATOM
       1    N1      18.881254   20.543944   22.109394 N.4        1 MOL1        -0.5891
       2    H1      18.157266   20.912312   22.734671 H          1 MOL1         0.3726
       3    H2      19.039760   21.253654   21.387821 H          1 MOL1         0.3726
       4    H3      19.743616   20.471988   22.655286 H          1 MOL1         0.3726
       5    C1      18.482718   19.209384   21.509262 C.3        1 MOL1         0.0314
       6    H4      17.560577   19.374864   20.945517 H          1 MOL1         0.0999
       7    H5      18.260827   18.514032   22.323235 H          1 MOL1         0.0999
       8    C2      19.542127   18.594059   20.570839 C.3        1 MOL1        -0.1308
       9    H6      19.032692   17.873073   19.917769 H          1 MOL1         0.1025
      10    H7      19.949345   19.367230   19.905925 H          1 MOL1         0.1025
      11    C3      20.690427   17.849339   21.298508 C.3        1 MOL1        -0.1243
      12    H8      21.323075   17.364936   20.541473 H          1 MOL1         0.1025
      13    H9      20.274347   17.037361   21.911362 H          1 MOL1         0.1025
      14    C4      21.581926   18.754208   22.179031 C.3        1 MOL1        -0.2258
      15    H10     21.937585   19.629184   21.619499 H          1 MOL1         0.1036
      16    H11     22.463753   18.199099   22.524560 H          1 MOL1         0.1036
      17    H12     21.047917   19.098177   23.072452 H          1 MOL1         0.1036
@<TRIPOS>BOND
    1     1     2    1
    2     1     3    1
    3     1     4    1
    4     1     5    1
    5     5     6    1
    6     5     7    1
    7     5     8    1
    8     8     9    1
    9     8    10    1
   10     8    11    1
   11    11    12    1
   12    11    13    1
   13    11    14    1
   14    14    15    1
   15    14    16    1
   16    14    17    1
@<TRIPOS>SUBSTRUCTURE
       1 MOL1            1 RESIDUE      1      MOL     
@<SCITEGIC>MOL_PROPERTY
VConf Rank
SciTegic.value.IntegerValue
496

@<SCITEGIC>MOL_PROPERTY
Conf_Id
SciTegic.value.IntegerValue
44

@<SCITEGIC>MOL_PROPERTY
Delta U+W
SciTegic.value.DoubleValue
2.712

@<SCITEGIC>MOL_PROPERTY
U+W
SciTegic.value.DoubleValue
-13.153

@<SCITEGIC>MOL_PROPERTY
Grad RMS
SciTegic.value.DoubleValue
0.000000

@<SCITEGIC>MOL_PROPERTY
U
SciTegic.value.DoubleValue
47.423

@<SCITEGIC>MOL_PROPERTY
W
SciTegic.value.DoubleValue
-60.576

@<SCITEGIC>MOL_PROPERTY
W(PB)
SciTegic.value.DoubleValue
-62.262

@<SCITEGIC>MOL_PROPERTY
W(SA)
SciTegic.value.DoubleValue
1.687

@<SCITEGIC>MOL_PROPERTY
Valence
SciTegic.value.DoubleValue
2.414

@<SCITEGIC>MOL_PROPERTY
Coulomb
SciTegic.value.DoubleValue
44.831

@<SCITEGIC>MOL_PROPERTY
VdW
SciTegic.value.DoubleValue
0.178

@<SCITEGIC>MOL_PROPERTY
VdW6
SciTegic.value.DoubleValue
-3.743

@<SCITEGIC>MOL_PROPERTY
VdW12
SciTegic.value.DoubleValue
3.922

@<SCITEGIC>MOL_PROPERTY
Bond
SciTegic.value.DoubleValue
0.138

@<SCITEGIC>MOL_PROPERTY
Angle
SciTegic.value.DoubleValue
0.941

@<SCITEGIC>MOL_PROPERTY
Pdih
SciTegic.value.DoubleValue
1.335

@<SCITEGIC>MOL_PROPERTY
Idih
SciTegic.value.DoubleValue
0.000

@<SCITEGIC>MOL_PROPERTY
Tether
SciTegic.value.DoubleValue
0.000

@<TRIPOS>MOLECULE
guest-1_confgen4.mol2 : confsearch ligand conformer 497
          17          16           1
SMALL
USER_CHARGES
 
@<TRIPOS>ATOM
       1    N1      19.413924   18.051607   23.247334 N.4        1 MOL1        -0.5891
       2    H1      19.238358   19.044520   23.425509 H          1 MOL1         0.3726
       3    H2      20.238423   17.786882   23.794600 H          1 MOL1         0.3726
       4    H3      18.619762   17.532911   23.635829 H          1 MOL1         0.3726
       5    C1      19.602086   17.770796   21.768957 C.3        1 MOL1         0.0314
       6    H4      18.680033   18.046943   21.250917 H          1 MOL1         0.0999
       7    H5      19.746523   16.693472   21.650422 H          1 MOL1         0.0999
       8    C2      20.796048   18.518398   21.140097 C.3        1 MOL1        -0.1308
       9    H6      21.721843   18.203928   21.639860 H          1 MOL1         0.1025
      10    H7      20.893332   18.206066   20.091866 H          1 MOL1         0.1025
      11    C3      20.676763   20.061580   21.202682 C.3        1 MOL1        -0.1243
      12    H8      21.573494   20.504488   20.747041 H          1 MOL1         0.1025
      13    H9      20.670790   20.397737   22.248443 H          1 MOL1         0.1025
      14    C4      19.424572   20.602095   20.474904 C.3        1 MOL1        -0.2258
      15    H10     19.408184   20.279884   19.425629 H          1 MOL1         0.1036
      16    H11     19.415370   21.699688   20.488061 H          1 MOL1         0.1036
      17    H12     18.499137   20.257765   20.953396 H          1 MOL1         0.1036
@<TRIPOS>BOND
    1     1     2    1
    2     1     3    1
    3     1     4    1
    4     1     5    1
    5     5     6    1
    6     5     7    1
    7     5     8    1
    8     8     9    1
    9     8    10    1
   10     8    11    1
   11    11    12    1
   12    11    13    1
   13    11    14    1
   14    14    15    1
   15    14    16    1
   16    14    17    1
@<TRIPOS>SUBSTRUCTURE
       1 MOL1            1 RESIDUE      1      MOL     
@<SCITEGIC>MOL_PROPERTY
VConf Rank
SciTegic.value.IntegerValue
497

@<SCITEGIC>MOL_PROPERTY
Conf_Id
SciTegic.value.IntegerValue
1

@<SCITEGIC>MOL_PROPERTY
Delta U+W
SciTegic.value.DoubleValue
0.685

@<SCITEGIC>MOL_PROPERTY
U+W
SciTegic.value.DoubleValue
-15.179

@<SCITEGIC>MOL_PROPERTY
Grad RMS
SciTegic.value.DoubleValue
0.000000

@<SCITEGIC>MOL_PROPERTY
U
SciTegic.value.DoubleValue
45.697

@<SCITEGIC>MOL_PROPERTY
W
SciTegic.value.DoubleValue
-60.876

@<SCITEGIC>MOL_PROPERTY
W(PB)
SciTegic.value.DoubleValue
-62.586

@<SCITEGIC>MOL_PROPERTY
W(SA)
SciTegic.value.DoubleValue
1.710

@<SCITEGIC>MOL_PROPERTY
Valence
SciTegic.value.DoubleValue
1.263

@<SCITEGIC>MOL_PROPERTY
Coulomb
SciTegic.value.DoubleValue
44.179

@<SCITEGIC>MOL_PROPERTY
VdW
SciTegic.value.DoubleValue
0.255

@<SCITEGIC>MOL_PROPERTY
VdW6
SciTegic.value.DoubleValue
-3.552

@<SCITEGIC>MOL_PROPERTY
VdW12
SciTegic.value.DoubleValue
3.807

@<SCITEGIC>MOL_PROPERTY
Bond
SciTegic.value.DoubleValue
0.125

@<SCITEGIC>MOL_PROPERTY
Angle
SciTegic.value.DoubleValue
0.616

@<SCITEGIC>MOL_PROPERTY
Pdih
SciTegic.value.DoubleValue
0.521

@<SCITEGIC>MOL_PROPERTY
Idih
SciTegic.value.DoubleValue
0.000

@<SCITEGIC>MOL_PROPERTY
Tether
SciTegic.value.DoubleValue
0.000

@<TRIPOS>MOLECULE
guest-1_confgen4.mol2 : confsearch ligand conformer 498
          17          16           1
SMALL
USER_CHARGES
 
@<TRIPOS>ATOM
       1    N1      19.435757   19.509035   23.463639 N.4        1 MOL1        -0.5891
       2    H1      18.426640   19.655670   23.561412 H          1 MOL1         0.3726
       3    H2      19.823217   20.350975   23.028367 H          1 MOL1         0.3726
       4    H3      19.822215   19.457386   24.411610 H          1 MOL1         0.3726
       5    C1      19.751062   18.263870   22.657410 C.3        1 MOL1         0.0314
       6    H4      19.342345   17.405326   23.197216 H          1 MOL1         0.0999
       7    H5      20.837605   18.151520   22.617317 H          1 MOL1         0.0999
       8    C2      19.177268   18.287200   21.225580 C.3        1 MOL1        -0.1308
       9    H6      19.398028   17.325843   20.743022 H          1 MOL1         0.1025
      10    H7      18.082769   18.359096   21.277062 H          1 MOL1         0.1025
      11    C3      19.727088   19.437053   20.345186 C.3        1 MOL1        -0.1243
      12    H8      19.434761   20.408348   20.766833 H          1 MOL1         0.1025
      13    H9      19.253740   19.381711   19.354841 H          1 MOL1         0.1025
      14    C4      21.262340   19.385699   20.171521 C.3        1 MOL1        -0.2258
      15    H10     21.599391   20.177239   19.489736 H          1 MOL1         0.1036
      16    H11     21.579765   18.423196   19.749744 H          1 MOL1         0.1036
      17    H12     21.781997   19.528873   21.127244 H          1 MOL1         0.1036
@<TRIPOS>BOND
    1     1     2    1
    2     1     3    1
    3     1     4    1
    4     1     5    1
    5     5     6    1
    6     5     7    1
    7     5     8    1
    8     8     9    1
    9     8    10    1
   10     8    11    1
   11    11    12    1
   12    11    13    1
   13    11    14    1
   14    14    15    1
   15    14    16    1
   16    14    17    1
@<TRIPOS>SUBSTRUCTURE
       1 MOL1            1 RESIDUE      1      MOL     
@<SCITEGIC>MOL_PROPERTY
VConf Rank
SciTegic.value.IntegerValue
498

@<SCITEGIC>MOL_PROPERTY
Conf_Id
SciTegic.value.IntegerValue
43

@<SCITEGIC>MOL_PROPERTY
Delta U+W
SciTegic.value.DoubleValue
0.642

@<SCITEGIC>MOL_PROPERTY
U+W
SciTegic.value.DoubleValue
-15.222

@<SCITEGIC>MOL_PROPERTY
Grad RMS
SciTegic.value.DoubleValue
0.000000

@<SCITEGIC>MOL_PROPERTY
U
SciTegic.value.DoubleValue
45.697

@<SCITEGIC>MOL_PROPERTY
W
SciTegic.value.DoubleValue
-60.919

@<SCITEGIC>MOL_PROPERTY
W(PB)
SciTegic.value.DoubleValue
-62.631

@<SCITEGIC>MOL_PROPERTY
W(SA)
SciTegic.value.DoubleValue
1.712

@<SCITEGIC>MOL_PROPERTY
Valence
SciTegic.value.DoubleValue
1.262

@<SCITEGIC>MOL_PROPERTY
Coulomb
SciTegic.value.DoubleValue
44.179

@<SCITEGIC>MOL_PROPERTY
VdW
SciTegic.value.DoubleValue
0.255

@<SCITEGIC>MOL_PROPERTY
VdW6
SciTegic.value.DoubleValue
-3.552

@<SCITEGIC>MOL_PROPERTY
VdW12
SciTegic.value.DoubleValue
3.807

@<SCITEGIC>MOL_PROPERTY
Bond
SciTegic.value.DoubleValue
0.125

@<SCITEGIC>MOL_PROPERTY
Angle
SciTegic.value.DoubleValue
0.616

@<SCITEGIC>MOL_PROPERTY
Pdih
SciTegic.value.DoubleValue
0.521

@<SCITEGIC>MOL_PROPERTY
Idih
SciTegic.value.DoubleValue
0.000

@<SCITEGIC>MOL_PROPERTY
Tether
SciTegic.value.DoubleValue
0.000

@<TRIPOS>MOLECULE
guest-1_confgen4.mol2 : confsearch ligand conformer 499
          17          16           1
SMALL
USER_CHARGES
 
@<TRIPOS>ATOM
       1    N1      19.762808   21.490579   22.407311 N.4        1 MOL1        -0.5891
       2    H1      19.200001   21.844131   21.627603 H          1 MOL1         0.3726
       3    H2      20.732777   21.767431   22.227840 H          1 MOL1         0.3726
       4    H3      19.460121   21.997941   23.245090 H          1 MOL1         0.3726
       5    C1      19.622035   19.990788   22.575147 C.3        1 MOL1         0.0314
       6    H4      18.573101   19.772501   22.793347 H          1 MOL1         0.0999
       7    H5      20.221300   19.690026   23.438829 H          1 MOL1         0.0999
       8    C2      20.068410   19.196842   21.333914 C.3        1 MOL1        -0.1308
       9    H6      19.475054   19.512582   20.465451 H          1 MOL1         0.1025
      10    H7      21.117612   19.430273   21.108802 H          1 MOL1         0.1025
      11    C3      19.908872   17.675381   21.546578 C.3        1 MOL1        -0.1243
      12    H8      18.859426   17.441485   21.775230 H          1 MOL1         0.1025
      13    H9      20.500029   17.359259   22.417741 H          1 MOL1         0.1025
      14    C4      20.354681   16.872374   20.305454 C.3        1 MOL1        -0.2258
      15    H10     20.233599   15.794836   20.476625 H          1 MOL1         0.1036
      16    H11     21.411052   17.059145   20.072208 H          1 MOL1         0.1036
      17    H12     19.757531   17.142072   19.424612 H          1 MOL1         0.1036
@<TRIPOS>BOND
    1     1     2    1
    2     1     3    1
    3     1     4    1
    4     1     5    1
    5     5     6    1
    6     5     7    1
    7     5     8    1
    8     8     9    1
    9     8    10    1
   10     8    11    1
   11    11    12    1
   12    11    13    1
   13    11    14    1
   14    14    15    1
   15    14    16    1
   16    14    17    1
@<TRIPOS>SUBSTRUCTURE
       1 MOL1            1 RESIDUE      1      MOL     
@<SCITEGIC>MOL_PROPERTY
VConf Rank
SciTegic.value.IntegerValue
499

@<SCITEGIC>MOL_PROPERTY
Conf_Id
SciTegic.value.IntegerValue
7

@<SCITEGIC>MOL_PROPERTY
Delta U+W
SciTegic.value.DoubleValue
0.000

@<SCITEGIC>MOL_PROPERTY
U+W
SciTegic.value.DoubleValue
-15.865

@<SCITEGIC>MOL_PROPERTY
Grad RMS
SciTegic.value.DoubleValue
0.000000

@<SCITEGIC>MOL_PROPERTY
U
SciTegic.value.DoubleValue
44.664

@<SCITEGIC>MOL_PROPERTY
W
SciTegic.value.DoubleValue
-60.529

@<SCITEGIC>MOL_PROPERTY
W(PB)
SciTegic.value.DoubleValue
-62.309

@<SCITEGIC>MOL_PROPERTY
W(SA)
SciTegic.value.DoubleValue
1.780

@<SCITEGIC>MOL_PROPERTY
Valence
SciTegic.value.DoubleValue
0.872

@<SCITEGIC>MOL_PROPERTY
Coulomb
SciTegic.value.DoubleValue
43.648

@<SCITEGIC>MOL_PROPERTY
VdW
SciTegic.value.DoubleValue
0.144

@<SCITEGIC>MOL_PROPERTY
VdW6
SciTegic.value.DoubleValue
-2.370

@<SCITEGIC>MOL_PROPERTY
VdW12
SciTegic.value.DoubleValue
2.515

@<SCITEGIC>MOL_PROPERTY
Bond
SciTegic.value.DoubleValue
0.080

@<SCITEGIC>MOL_PROPERTY
Angle
SciTegic.value.DoubleValue
0.376

@<SCITEGIC>MOL_PROPERTY
Pdih
SciTegic.value.DoubleValue
0.416

@<SCITEGIC>MOL_PROPERTY
Idih
SciTegic.value.DoubleValue
0.000

@<SCITEGIC>MOL_PROPERTY
Tether
SciTegic.value.DoubleValue
0.000

@<TRIPOS>MOLECULE
guest-1_confgen4.mol2 : confsearch ligand conformer 500
          17          16           1
SMALL
USER_CHARGES
 
@<TRIPOS>ATOM
       1    N1      20.838964   17.961947   23.547065 N.4        1 MOL1        -0.5891
       2    H1      20.821433   16.952531   23.372650 H          1 MOL1         0.3726
       3    H2      20.078598   18.167110   24.202351 H          1 MOL1         0.3726
       4    H3      21.715963   18.162447   24.038508 H          1 MOL1         0.3726
       5    C1      20.715246   18.761854   22.265583 C.3        1 MOL1         0.0314
       6    H4      21.570625   18.516692   21.630264 H          1 MOL1         0.0999
       7    H5      20.773224   19.822211   22.524658 H          1 MOL1         0.0999
       8    C2      19.406595   18.484414   21.501111 C.3        1 MOL1        -0.1308
       9    H6      19.339213   17.410695   21.280963 H          1 MOL1         0.1025
      10    H7      18.547476   18.729069   22.139819 H          1 MOL1         0.1025
      11    C3      19.310231   19.276747   20.176374 C.3        1 MOL1        -0.1243
      12    H8      18.397006   18.974003   19.645009 H          1 MOL1         0.1025
      13    H9      20.151598   19.008035   19.522098 H          1 MOL1         0.1025
      14    C4      19.285920   20.807884   20.388478 C.3        1 MOL1        -0.2258
      15    H10     18.456730   21.102727   21.044707 H          1 MOL1         0.1036
      16    H11     19.155276   21.327178   19.430213 H          1 MOL1         0.1036
      17    H12     20.221284   21.168228   20.834949 H          1 MOL1         0.1036
@<TRIPOS>BOND
    1     1     2    1
    2     1     3    1
    3     1     4    1
    4     1     5    1
    5     5     6    1
    6     5     7    1
    7     5     8    1
    8     8     9    1
    9     8    10    1
   10     8    11    1
   11    11    12    1
   12    11    13    1
   13    11    14    1
   14    14    15    1
   15    14    16    1
   16    14    17    1
@<TRIPOS>SUBSTRUCTURE
       1 MOL1            1 RESIDUE      1      MOL     
@<SCITEGIC>MOL_PROPERTY
VConf Rank
SciTegic.value.IntegerValue
500

@<SCITEGIC>MOL_PROPERTY
Conf_Id
SciTegic.value.IntegerValue
36

@<SCITEGIC>MOL_PROPERTY
Delta U+W
SciTegic.value.DoubleValue
0.275

@<SCITEGIC>MOL_PROPERTY
U+W
SciTegic.value.DoubleValue
-15.590

@<SCITEGIC>MOL_PROPERTY
Grad RMS
SciTegic.value.DoubleValue
0.000000

@<SCITEGIC>MOL_PROPERTY
U
SciTegic.value.DoubleValue
45.174

@<SCITEGIC>MOL_PROPERTY
W
SciTegic.value.DoubleValue
-60.765

@<SCITEGIC>MOL_PROPERTY
W(PB)
SciTegic.value.DoubleValue
-62.518

@<SCITEGIC>MOL_PROPERTY
W(SA)
SciTegic.value.DoubleValue
1.754

@<SCITEGIC>MOL_PROPERTY
Valence
SciTegic.value.DoubleValue
1.161

@<SCITEGIC>MOL_PROPERTY
Coulomb
SciTegic.value.DoubleValue
43.789

@<SCITEGIC>MOL_PROPERTY
VdW
SciTegic.value.DoubleValue
0.224

@<SCITEGIC>MOL_PROPERTY
VdW6
SciTegic.value.DoubleValue
-2.897

@<SCITEGIC>MOL_PROPERTY
VdW12
SciTegic.value.DoubleValue
3.121

@<SCITEGIC>MOL_PROPERTY
Bond
SciTegic.value.DoubleValue
0.100

@<SCITEGIC>MOL_PROPERTY
Angle
SciTegic.value.DoubleValue
0.500

@<SCITEGIC>MOL_PROPERTY
Pdih
SciTegic.value.DoubleValue
0.561

@<SCITEGIC>MOL_PROPERTY
Idih
SciTegic.value.DoubleValue
0.000

@<SCITEGIC>MOL_PROPERTY
Tether
SciTegic.value.DoubleValue
0.000

@<TRIPOS>MOLECULE
guest-1_confgen4.mol2 : confsearch ligand conformer 501
          17          16           1
SMALL
USER_CHARGES
 
@<TRIPOS>ATOM
       1    N1      20.221989   17.764894   20.230247 N.4        1 MOL1        -0.5891
       2    H1      20.042830   17.291026   21.119177 H          1 MOL1         0.3726
       3    H2      21.234466   17.742774   20.075714 H          1 MOL1         0.3726
       4    H3      19.796159   17.194813   19.492346 H          1 MOL1         0.3726
       5    C1      19.682762   19.182379   20.230050 C.3        1 MOL1         0.0314
       6    H4      18.594803   19.140964   20.329709 H          1 MOL1         0.0999
       7    H5      19.916291   19.613218   19.252615 H          1 MOL1         0.0999
       8    C2      20.274204   20.086314   21.332190 C.3        1 MOL1        -0.1308
       9    H6      21.360404   19.938695   21.396287 H          1 MOL1         0.1025
      10    H7      20.129886   21.129942   21.022578 H          1 MOL1         0.1025
      11    C3      19.622697   19.908750   22.727437 C.3        1 MOL1        -0.1243
      12    H8      18.546237   20.120937   22.662385 H          1 MOL1         0.1025
      13    H9      20.041441   20.667086   23.403875 H          1 MOL1         0.1025
      14    C4      19.835511   18.514357   23.359308 C.3        1 MOL1        -0.2258
      15    H10     19.259599   17.742903   22.835039 H          1 MOL1         0.1036
      16    H11     19.497762   18.514392   24.403857 H          1 MOL1         0.1036
      17    H12     20.896156   18.231272   23.352446 H          1 MOL1         0.1036
@<TRIPOS>BOND
    1     1     2    1
    2     1     3    1
    3     1     4    1
    4     1     5    1
    5     5     6    1
    6     5     7    1
    7     5     8    1
    8     8     9    1
    9     8    10    1
   10     8    11    1
   11    11    12    1
   12    11    13    1
   13    11    14    1
   14    14    15    1
   15    14    16    1
   16    14    17    1
@<TRIPOS>SUBSTRUCTURE
       1 MOL1            1 RESIDUE      1      MOL     
@<SCITEGIC>MOL_PROPERTY
VConf Rank
SciTegic.value.IntegerValue
501

@<SCITEGIC>MOL_PROPERTY
Conf_Id
SciTegic.value.IntegerValue
19

@<SCITEGIC>MOL_PROPERTY
Delta U+W
SciTegic.value.DoubleValue
2.662

@<SCITEGIC>MOL_PROPERTY
U+W
SciTegic.value.DoubleValue
-13.203

@<SCITEGIC>MOL_PROPERTY
Grad RMS
SciTegic.value.DoubleValue
0.000000

@<SCITEGIC>MOL_PROPERTY
U
SciTegic.value.DoubleValue
47.423

@<SCITEGIC>MOL_PROPERTY
W
SciTegic.value.DoubleValue
-60.626

@<SCITEGIC>MOL_PROPERTY
W(PB)
SciTegic.value.DoubleValue
-62.328

@<SCITEGIC>MOL_PROPERTY
W(SA)
SciTegic.value.DoubleValue
1.702

@<SCITEGIC>MOL_PROPERTY
Valence
SciTegic.value.DoubleValue
2.414

@<SCITEGIC>MOL_PROPERTY
Coulomb
SciTegic.value.DoubleValue
44.831

@<SCITEGIC>MOL_PROPERTY
VdW
SciTegic.value.DoubleValue
0.178

@<SCITEGIC>MOL_PROPERTY
VdW6
SciTegic.value.DoubleValue
-3.743

@<SCITEGIC>MOL_PROPERTY
VdW12
SciTegic.value.DoubleValue
3.921

@<SCITEGIC>MOL_PROPERTY
Bond
SciTegic.value.DoubleValue
0.138

@<SCITEGIC>MOL_PROPERTY
Angle
SciTegic.value.DoubleValue
0.941

@<SCITEGIC>MOL_PROPERTY
Pdih
SciTegic.value.DoubleValue
1.335

@<SCITEGIC>MOL_PROPERTY
Idih
SciTegic.value.DoubleValue
0.000

@<SCITEGIC>MOL_PROPERTY
Tether
SciTegic.value.DoubleValue
0.000

@<TRIPOS>MOLECULE
guest-1_confgen4.mol2 : confsearch ligand conformer 502
          17          16           1
SMALL
USER_CHARGES
 
@<TRIPOS>ATOM
       1    N1      18.974397   18.774405   20.003046 N.4        1 MOL1        -0.5891
       2    H1      18.992081   18.867184   18.982310 H          1 MOL1         0.3726
       3    H2      18.014342   18.528383   20.262370 H          1 MOL1         0.3726
       4    H3      19.565468   17.974715   20.243824 H          1 MOL1         0.3726
       5    C1      19.436884   20.043322   20.692969 C.3        1 MOL1         0.0314
       6    H4      18.755515   20.841181   20.385245 H          1 MOL1         0.0999
       7    H5      20.436641   20.293441   20.327965 H          1 MOL1         0.0999
       8    C2      19.449297   19.959241   22.233874 C.3        1 MOL1        -0.1308
       9    H6      19.418535   20.984696   22.625463 H          1 MOL1         0.1025
      10    H7      18.531817   19.472930   22.590890 H          1 MOL1         0.1025
      11    C3      20.697429   19.259020   22.829325 C.3        1 MOL1        -0.1243
      12    H8      20.654922   19.348146   23.923967 H          1 MOL1         0.1025
      13    H9      21.605503   19.793167   22.516103 H          1 MOL1         0.1025
      14    C4      20.827192   17.763320   22.462007 C.3        1 MOL1        -0.2258
      15    H10     19.898471   17.218350   22.675634 H          1 MOL1         0.1036
      16    H11     21.629593   17.295944   23.047558 H          1 MOL1         0.1036
      17    H12     21.081124   17.629403   21.404054 H          1 MOL1         0.1036
@<TRIPOS>BOND
    1     1     2    1
    2     1     3    1
    3     1     4    1
    4     1     5    1
    5     5     6    1
    6     5     7    1
    7     5     8    1
    8     8     9    1
    9     8    10    1
   10     8    11    1
   11    11    12    1
   12    11    13    1
   13    11    14    1
   14    14    15    1
   15    14    16    1
   16    14    17    1
@<TRIPOS>SUBSTRUCTURE
       1 MOL1            1 RESIDUE      1      MOL     
@<SCITEGIC>MOL_PROPERTY
VConf Rank
SciTegic.value.IntegerValue
502

@<SCITEGIC>MOL_PROPERTY
Conf_Id
SciTegic.value.IntegerValue
44

@<SCITEGIC>MOL_PROPERTY
Delta U+W
SciTegic.value.DoubleValue
2.712

@<SCITEGIC>MOL_PROPERTY
U+W
SciTegic.value.DoubleValue
-13.153

@<SCITEGIC>MOL_PROPERTY
Grad RMS
SciTegic.value.DoubleValue
0.000000

@<SCITEGIC>MOL_PROPERTY
U
SciTegic.value.DoubleValue
47.423

@<SCITEGIC>MOL_PROPERTY
W
SciTegic.value.DoubleValue
-60.576

@<SCITEGIC>MOL_PROPERTY
W(PB)
SciTegic.value.DoubleValue
-62.262

@<SCITEGIC>MOL_PROPERTY
W(SA)
SciTegic.value.DoubleValue
1.687

@<SCITEGIC>MOL_PROPERTY
Valence
SciTegic.value.DoubleValue
2.414

@<SCITEGIC>MOL_PROPERTY
Coulomb
SciTegic.value.DoubleValue
44.831

@<SCITEGIC>MOL_PROPERTY
VdW
SciTegic.value.DoubleValue
0.178

@<SCITEGIC>MOL_PROPERTY
VdW6
SciTegic.value.DoubleValue
-3.743

@<SCITEGIC>MOL_PROPERTY
VdW12
SciTegic.value.DoubleValue
3.922

@<SCITEGIC>MOL_PROPERTY
Bond
SciTegic.value.DoubleValue
0.138

@<SCITEGIC>MOL_PROPERTY
Angle
SciTegic.value.DoubleValue
0.941

@<SCITEGIC>MOL_PROPERTY
Pdih
SciTegic.value.DoubleValue
1.335

@<SCITEGIC>MOL_PROPERTY
Idih
SciTegic.value.DoubleValue
0.000

@<SCITEGIC>MOL_PROPERTY
Tether
SciTegic.value.DoubleValue
0.000

@<TRIPOS>MOLECULE
guest-1_confgen4.mol2 : confsearch ligand conformer 503
          17          16           1
SMALL
USER_CHARGES
 
@<TRIPOS>ATOM
       1    N1      18.992860   20.627382   20.847622 N.4        1 MOL1        -0.5891
       2    H1      18.754079   20.582439   21.842312 H          1 MOL1         0.3726
       3    H2      18.154624   20.360748   20.322602 H          1 MOL1         0.3726
       4    H3      19.180510   21.611104   20.629108 H          1 MOL1         0.3726
       5    C1      20.176105   19.739708   20.513221 C.3        1 MOL1         0.0314
       6    H4      21.038978   20.095647   21.082046 H          1 MOL1         0.0999
       7    H5      20.397059   19.865986   19.449844 H          1 MOL1         0.0999
       8    C2      19.937173   18.245040   20.811214 C.3        1 MOL1        -0.1308
       9    H6      19.094590   17.886887   20.204972 H          1 MOL1         0.1025
      10    H7      20.815853   17.675971   20.479723 H          1 MOL1         0.1025
      11    C3      19.664030   17.936147   22.304376 C.3        1 MOL1        -0.1243
      12    H8      19.492495   16.856388   22.416635 H          1 MOL1         0.1025
      13    H9      18.735241   18.425655   22.627467 H          1 MOL1         0.1025
      14    C4      20.825632   18.359217   23.232541 C.3        1 MOL1        -0.2258
      15    H10     21.766485   17.881307   22.930110 H          1 MOL1         0.1036
      16    H11     20.617864   18.062940   24.268891 H          1 MOL1         0.1036
      17    H12     20.975066   19.446196   23.222864 H          1 MOL1         0.1036
@<TRIPOS>BOND
    1     1     2    1
    2     1     3    1
    3     1     4    1
    4     1     5    1
    5     5     6    1
    6     5     7    1
    7     5     8    1
    8     8     9    1
    9     8    10    1
   10     8    11    1
   11    11    12    1
   12    11    13    1
   13    11    14    1
   14    14    15    1
   15    14    16    1
   16    14    17    1
@<TRIPOS>SUBSTRUCTURE
       1 MOL1            1 RESIDUE      1      MOL     
@<SCITEGIC>MOL_PROPERTY
VConf Rank
SciTegic.value.IntegerValue
503

@<SCITEGIC>MOL_PROPERTY
Conf_Id
SciTegic.value.IntegerValue
1

@<SCITEGIC>MOL_PROPERTY
Delta U+W
SciTegic.value.DoubleValue
0.685

@<SCITEGIC>MOL_PROPERTY
U+W
SciTegic.value.DoubleValue
-15.179

@<SCITEGIC>MOL_PROPERTY
Grad RMS
SciTegic.value.DoubleValue
0.000000

@<SCITEGIC>MOL_PROPERTY
U
SciTegic.value.DoubleValue
45.697

@<SCITEGIC>MOL_PROPERTY
W
SciTegic.value.DoubleValue
-60.876

@<SCITEGIC>MOL_PROPERTY
W(PB)
SciTegic.value.DoubleValue
-62.586

@<SCITEGIC>MOL_PROPERTY
W(SA)
SciTegic.value.DoubleValue
1.710

@<SCITEGIC>MOL_PROPERTY
Valence
SciTegic.value.DoubleValue
1.263

@<SCITEGIC>MOL_PROPERTY
Coulomb
SciTegic.value.DoubleValue
44.179

@<SCITEGIC>MOL_PROPERTY
VdW
SciTegic.value.DoubleValue
0.255

@<SCITEGIC>MOL_PROPERTY
VdW6
SciTegic.value.DoubleValue
-3.552

@<SCITEGIC>MOL_PROPERTY
VdW12
SciTegic.value.DoubleValue
3.807

@<SCITEGIC>MOL_PROPERTY
Bond
SciTegic.value.DoubleValue
0.125

@<SCITEGIC>MOL_PROPERTY
Angle
SciTegic.value.DoubleValue
0.616

@<SCITEGIC>MOL_PROPERTY
Pdih
SciTegic.value.DoubleValue
0.521

@<SCITEGIC>MOL_PROPERTY
Idih
SciTegic.value.DoubleValue
0.000

@<SCITEGIC>MOL_PROPERTY
Tether
SciTegic.value.DoubleValue
0.000

@<TRIPOS>MOLECULE
guest-1_confgen4.mol2 : confsearch ligand conformer 504
          17          16           1
SMALL
USER_CHARGES
 
@<TRIPOS>ATOM
       1    N1      18.201568   20.010689   21.494447 N.4        1 MOL1        -0.5891
       2    H1      17.713553   20.010632   22.395124 H          1 MOL1         0.3726
       3    H2      18.051406   19.091629   21.068738 H          1 MOL1         0.3726
       4    H3      17.727421   20.697281   20.899094 H          1 MOL1         0.3726
       5    C1      19.677317   20.323176   21.650566 C.3        1 MOL1         0.0314
       6    H4      19.761995   21.328013   22.073260 H          1 MOL1         0.0999
       7    H5      20.128676   20.336386   20.655123 H          1 MOL1         0.0999
       8    C2      20.433379   19.324786   22.551404 C.3        1 MOL1        -0.1308
       9    H6      21.472051   19.664794   22.657974 H          1 MOL1         0.1025
      10    H7      19.999022   19.348687   23.559626 H          1 MOL1         0.1025
      11    C3      20.425872   17.868715   22.022859 C.3        1 MOL1        -0.1243
      12    H8      19.398202   17.481541   21.997437 H          1 MOL1         0.1025
      13    H9      20.972233   17.231882   22.732674 H          1 MOL1         0.1025
      14    C4      21.069655   17.728871   20.624365 C.3        1 MOL1        -0.2258
      15    H10     21.101745   16.675004   20.318911 H          1 MOL1         0.1036
      16    H11     22.099573   18.108787   20.624303 H          1 MOL1         0.1036
      17    H12     20.502319   18.277167   19.861836 H          1 MOL1         0.1036
@<TRIPOS>BOND
    1     1     2    1
    2     1     3    1
    3     1     4    1
    4     1     5    1
    5     5     6    1
    6     5     7    1
    7     5     8    1
    8     8     9    1
    9     8    10    1
   10     8    11    1
   11    11    12    1
   12    11    13    1
   13    11    14    1
   14    14    15    1
   15    14    16    1
   16    14    17    1
@<TRIPOS>SUBSTRUCTURE
       1 MOL1            1 RESIDUE      1      MOL     
@<SCITEGIC>MOL_PROPERTY
VConf Rank
SciTegic.value.IntegerValue
504

@<SCITEGIC>MOL_PROPERTY
Conf_Id
SciTegic.value.IntegerValue
43

@<SCITEGIC>MOL_PROPERTY
Delta U+W
SciTegic.value.DoubleValue
0.642

@<SCITEGIC>MOL_PROPERTY
U+W
SciTegic.value.DoubleValue
-15.222

@<SCITEGIC>MOL_PROPERTY
Grad RMS
SciTegic.value.DoubleValue
0.000000

@<SCITEGIC>MOL_PROPERTY
U
SciTegic.value.DoubleValue
45.697

@<SCITEGIC>MOL_PROPERTY
W
SciTegic.value.DoubleValue
-60.919

@<SCITEGIC>MOL_PROPERTY
W(PB)
SciTegic.value.DoubleValue
-62.631

@<SCITEGIC>MOL_PROPERTY
W(SA)
SciTegic.value.DoubleValue
1.712

@<SCITEGIC>MOL_PROPERTY
Valence
SciTegic.value.DoubleValue
1.262

@<SCITEGIC>MOL_PROPERTY
Coulomb
SciTegic.value.DoubleValue
44.179

@<SCITEGIC>MOL_PROPERTY
VdW
SciTegic.value.DoubleValue
0.255

@<SCITEGIC>MOL_PROPERTY
VdW6
SciTegic.value.DoubleValue
-3.552

@<SCITEGIC>MOL_PROPERTY
VdW12
SciTegic.value.DoubleValue
3.807

@<SCITEGIC>MOL_PROPERTY
Bond
SciTegic.value.DoubleValue
0.125

@<SCITEGIC>MOL_PROPERTY
Angle
SciTegic.value.DoubleValue
0.616

@<SCITEGIC>MOL_PROPERTY
Pdih
SciTegic.value.DoubleValue
0.521

@<SCITEGIC>MOL_PROPERTY
Idih
SciTegic.value.DoubleValue
0.000

@<SCITEGIC>MOL_PROPERTY
Tether
SciTegic.value.DoubleValue
0.000

@<TRIPOS>MOLECULE
guest-1_confgen4.mol2 : confsearch ligand conformer 505
          17          16           1
SMALL
USER_CHARGES
 
@<TRIPOS>ATOM
       1    N1      22.462106   19.046596   22.158370 N.4        1 MOL1        -0.5891
       2    H1      22.376352   18.807550   23.150942 H          1 MOL1         0.3726
       3    H2      22.615664   20.058156   22.104861 H          1 MOL1         0.3726
       4    H3      23.319288   18.598485   21.818747 H          1 MOL1         0.3726
       5    C1      21.246691   18.613782   21.362885 C.3        1 MOL1         0.0314
       6    H4      21.162928   17.526280   21.439347 H          1 MOL1         0.0999
       7    H5      21.420283   18.871047   20.314455 H          1 MOL1         0.0999
       8    C2      19.940114   19.268675   21.846860 C.3        1 MOL1        -0.1308
       9    H6      19.777124   19.020887   22.904227 H          1 MOL1         0.1025
      10    H7      20.033537   20.361009   21.783068 H          1 MOL1         0.1025
      11    C3      18.728280   18.801308   21.011068 C.3        1 MOL1        -0.1243
      12    H8      18.636223   17.707618   21.071843 H          1 MOL1         0.1025
      13    H9      18.892281   19.046164   19.952071 H          1 MOL1         0.1025
      14    C4      17.413908   19.454122   21.490877 C.3        1 MOL1        -0.2258
      15    H10     16.565905   19.109418   20.884974 H          1 MOL1         0.1036
      16    H11     17.462882   20.547808   21.409275 H          1 MOL1         0.1036
      17    H12     17.204841   19.198739   22.537910 H          1 MOL1         0.1036
@<TRIPOS>BOND
    1     1     2    1
    2     1     3    1
    3     1     4    1
    4     1     5    1
    5     5     6    1
    6     5     7    1
    7     5     8    1
    8     8     9    1
    9     8    10    1
   10     8    11    1
   11    11    12    1
   12    11    13    1
   13    11    14    1
   14    14    15    1
   15    14    16    1
   16    14    17    1
@<TRIPOS>SUBSTRUCTURE
       1 MOL1            1 RESIDUE      1      MOL     
@<SCITEGIC>MOL_PROPERTY
VConf Rank
SciTegic.value.IntegerValue
505

@<SCITEGIC>MOL_PROPERTY
Conf_Id
SciTegic.value.IntegerValue
7

@<SCITEGIC>MOL_PROPERTY
Delta U+W
SciTegic.value.DoubleValue
0.000

@<SCITEGIC>MOL_PROPERTY
U+W
SciTegic.value.DoubleValue
-15.865

@<SCITEGIC>MOL_PROPERTY
Grad RMS
SciTegic.value.DoubleValue
0.000000

@<SCITEGIC>MOL_PROPERTY
U
SciTegic.value.DoubleValue
44.664

@<SCITEGIC>MOL_PROPERTY
W
SciTegic.value.DoubleValue
-60.529

@<SCITEGIC>MOL_PROPERTY
W(PB)
SciTegic.value.DoubleValue
-62.309

@<SCITEGIC>MOL_PROPERTY
W(SA)
SciTegic.value.DoubleValue
1.780

@<SCITEGIC>MOL_PROPERTY
Valence
SciTegic.value.DoubleValue
0.872

@<SCITEGIC>MOL_PROPERTY
Coulomb
SciTegic.value.DoubleValue
43.648

@<SCITEGIC>MOL_PROPERTY
VdW
SciTegic.value.DoubleValue
0.144

@<SCITEGIC>MOL_PROPERTY
VdW6
SciTegic.value.DoubleValue
-2.370

@<SCITEGIC>MOL_PROPERTY
VdW12
SciTegic.value.DoubleValue
2.515

@<SCITEGIC>MOL_PROPERTY
Bond
SciTegic.value.DoubleValue
0.080

@<SCITEGIC>MOL_PROPERTY
Angle
SciTegic.value.DoubleValue
0.376

@<SCITEGIC>MOL_PROPERTY
Pdih
SciTegic.value.DoubleValue
0.416

@<SCITEGIC>MOL_PROPERTY
Idih
SciTegic.value.DoubleValue
0.000

@<SCITEGIC>MOL_PROPERTY
Tether
SciTegic.value.DoubleValue
0.000

@<TRIPOS>MOLECULE
guest-1_confgen4.mol2 : confsearch ligand conformer 506
          17          16           1
SMALL
USER_CHARGES
 
@<TRIPOS>ATOM
       1    N1      19.834785   16.750994   21.055199 N.4        1 MOL1        -0.5891
       2    H1      20.790908   16.385844   21.008919 H          1 MOL1         0.3726
       3    H2      19.504718   16.852628   20.090640 H          1 MOL1         0.3726
       4    H3      19.259997   16.021954   21.489897 H          1 MOL1         0.3726
       5    C1      19.762239   18.057239   21.820586 C.3        1 MOL1         0.0314
       6    H4      20.098761   17.868621   22.843613 H          1 MOL1         0.0999
       7    H5      18.714869   18.368055   21.855899 H          1 MOL1         0.0999
       8    C2      20.615584   19.176253   21.193236 C.3        1 MOL1        -0.1308
       9    H6      21.658322   18.838599   21.125662 H          1 MOL1         0.1025
      10    H7      20.278671   19.364523   20.165164 H          1 MOL1         0.1025
      11    C3      20.564199   20.491753   22.004916 C.3        1 MOL1        -0.1243
      12    H8      21.252976   21.218221   21.551253 H          1 MOL1         0.1025
      13    H9      20.932624   20.312236   23.024827 H          1 MOL1         0.1025
      14    C4      19.148300   21.109416   22.065577 C.3        1 MOL1        -0.2258
      15    H10     18.753987   21.293372   21.057707 H          1 MOL1         0.1036
      16    H11     19.169722   22.069697   22.596999 H          1 MOL1         0.1036
      17    H12     18.444721   20.454368   22.594706 H          1 MOL1         0.1036
@<TRIPOS>BOND
    1     1     2    1
    2     1     3    1
    3     1     4    1
    4     1     5    1
    5     5     6    1
    6     5     7    1
    7     5     8    1
    8     8     9    1
    9     8    10    1
   10     8    11    1
   11    11    12    1
   12    11    13    1
   13    11    14    1
   14    14    15    1
   15    14    16    1
   16    14    17    1
@<TRIPOS>SUBSTRUCTURE
       1 MOL1            1 RESIDUE      1      MOL     
@<SCITEGIC>MOL_PROPERTY
VConf Rank
SciTegic.value.IntegerValue
506

@<SCITEGIC>MOL_PROPERTY
Conf_Id
SciTegic.value.IntegerValue
36

@<SCITEGIC>MOL_PROPERTY
Delta U+W
SciTegic.value.DoubleValue
0.275

@<SCITEGIC>MOL_PROPERTY
U+W
SciTegic.value.DoubleValue
-15.590

@<SCITEGIC>MOL_PROPERTY
Grad RMS
SciTegic.value.DoubleValue
0.000000

@<SCITEGIC>MOL_PROPERTY
U
SciTegic.value.DoubleValue
45.174

@<SCITEGIC>MOL_PROPERTY
W
SciTegic.value.DoubleValue
-60.765

@<SCITEGIC>MOL_PROPERTY
W(PB)
SciTegic.value.DoubleValue
-62.518

@<SCITEGIC>MOL_PROPERTY
W(SA)
SciTegic.value.DoubleValue
1.754

@<SCITEGIC>MOL_PROPERTY
Valence
SciTegic.value.DoubleValue
1.161

@<SCITEGIC>MOL_PROPERTY
Coulomb
SciTegic.value.DoubleValue
43.789

@<SCITEGIC>MOL_PROPERTY
VdW
SciTegic.value.DoubleValue
0.224

@<SCITEGIC>MOL_PROPERTY
VdW6
SciTegic.value.DoubleValue
-2.897

@<SCITEGIC>MOL_PROPERTY
VdW12
SciTegic.value.DoubleValue
3.121

@<SCITEGIC>MOL_PROPERTY
Bond
SciTegic.value.DoubleValue
0.100

@<SCITEGIC>MOL_PROPERTY
Angle
SciTegic.value.DoubleValue
0.500

@<SCITEGIC>MOL_PROPERTY
Pdih
SciTegic.value.DoubleValue
0.561

@<SCITEGIC>MOL_PROPERTY
Idih
SciTegic.value.DoubleValue
0.000

@<SCITEGIC>MOL_PROPERTY
Tether
SciTegic.value.DoubleValue
0.000

@<TRIPOS>MOLECULE
guest-1_confgen4.mol2 : confsearch ligand conformer 507
          17          16           1
SMALL
USER_CHARGES
 
@<TRIPOS>ATOM
       1    N1      19.584674   17.961235   23.110475 N.4        1 MOL1        -0.5891
       2    H1      18.722234   18.328790   22.700664 H          1 MOL1         0.3726
       3    H2      19.812154   18.553263   23.914985 H          1 MOL1         0.3726
       4    H3      19.371167   17.028656   23.478623 H          1 MOL1         0.3726
       5    C1      20.715582   17.923821   22.100684 C.3        1 MOL1         0.0314
       6    H4      20.446497   17.227024   21.302330 H          1 MOL1         0.0999
       7    H5      21.592303   17.523579   22.617118 H          1 MOL1         0.0999
       8    C2      21.072116   19.298269   21.496210 C.3        1 MOL1        -0.1308
       9    H6      21.099886   20.060277   22.286337 H          1 MOL1         0.1025
      10    H7      22.095189   19.235592   21.102206 H          1 MOL1         0.1025
      11    C3      20.143673   19.752823   20.341187 C.3        1 MOL1        -0.1243
      12    H8      20.173730   19.012263   19.529590 H          1 MOL1         0.1025
      13    H9      20.547637   20.683423   19.918355 H          1 MOL1         0.1025
      14    C4      18.676334   19.998796   20.759869 C.3        1 MOL1        -0.2258
      15    H10     18.161785   19.059518   20.993690 H          1 MOL1         0.1036
      16    H11     18.121613   20.474744   19.940776 H          1 MOL1         0.1036
      17    H12     18.616624   20.662643   21.632162 H          1 MOL1         0.1036
@<TRIPOS>BOND
    1     1     2    1
    2     1     3    1
    3     1     4    1
    4     1     5    1
    5     5     6    1
    6     5     7    1
    7     5     8    1
    8     8     9    1
    9     8    10    1
   10     8    11    1
   11    11    12    1
   12    11    13    1
   13    11    14    1
   14    14    15    1
   15    14    16    1
   16    14    17    1
@<TRIPOS>SUBSTRUCTURE
       1 MOL1            1 RESIDUE      1      MOL     
@<SCITEGIC>MOL_PROPERTY
VConf Rank
SciTegic.value.IntegerValue
507

@<SCITEGIC>MOL_PROPERTY
Conf_Id
SciTegic.value.IntegerValue
19

@<SCITEGIC>MOL_PROPERTY
Delta U+W
SciTegic.value.DoubleValue
2.662

@<SCITEGIC>MOL_PROPERTY
U+W
SciTegic.value.DoubleValue
-13.203

@<SCITEGIC>MOL_PROPERTY
Grad RMS
SciTegic.value.DoubleValue
0.000000

@<SCITEGIC>MOL_PROPERTY
U
SciTegic.value.DoubleValue
47.423

@<SCITEGIC>MOL_PROPERTY
W
SciTegic.value.DoubleValue
-60.626

@<SCITEGIC>MOL_PROPERTY
W(PB)
SciTegic.value.DoubleValue
-62.328

@<SCITEGIC>MOL_PROPERTY
W(SA)
SciTegic.value.DoubleValue
1.702

@<SCITEGIC>MOL_PROPERTY
Valence
SciTegic.value.DoubleValue
2.414

@<SCITEGIC>MOL_PROPERTY
Coulomb
SciTegic.value.DoubleValue
44.831

@<SCITEGIC>MOL_PROPERTY
VdW
SciTegic.value.DoubleValue
0.178

@<SCITEGIC>MOL_PROPERTY
VdW6
SciTegic.value.DoubleValue
-3.743

@<SCITEGIC>MOL_PROPERTY
VdW12
SciTegic.value.DoubleValue
3.921

@<SCITEGIC>MOL_PROPERTY
Bond
SciTegic.value.DoubleValue
0.138

@<SCITEGIC>MOL_PROPERTY
Angle
SciTegic.value.DoubleValue
0.941

@<SCITEGIC>MOL_PROPERTY
Pdih
SciTegic.value.DoubleValue
1.335

@<SCITEGIC>MOL_PROPERTY
Idih
SciTegic.value.DoubleValue
0.000

@<SCITEGIC>MOL_PROPERTY
Tether
SciTegic.value.DoubleValue
0.000

@<TRIPOS>MOLECULE
guest-1_confgen4.mol2 : confsearch ligand conformer 508
          17          16           1
SMALL
USER_CHARGES
 
@<TRIPOS>ATOM
       1    N1      20.014168   19.043793   19.746501 N.4        1 MOL1        -0.5891
       2    H1      19.608593   18.716038   18.863943 H          1 MOL1         0.3726
       3    H2      20.940925   19.420456   19.525759 H          1 MOL1         0.3726
       4    H3      19.440416   19.826686   20.070123 H          1 MOL1         0.3726
       5    C1      20.087618   17.935832   20.779490 C.3        1 MOL1         0.0314
       6    H4      20.715891   17.146559   20.357757 H          1 MOL1         0.0999
       7    H5      19.083780   17.527495   20.923964 H          1 MOL1         0.0999
       8    C2      20.674156   18.373164   22.138285 C.3        1 MOL1        -0.1308
       9    H6      21.032356   17.472264   22.653958 H          1 MOL1         0.1025
      10    H7      21.560342   19.001924   21.979962 H          1 MOL1         0.1025
      11    C3      19.665760   19.088303   23.073388 C.3        1 MOL1        -0.1243
      12    H8      20.154102   19.258852   24.043143 H          1 MOL1         0.1025
      13    H9      18.813611   18.424077   23.275051 H          1 MOL1         0.1025
      14    C4      19.147718   20.442628   22.538303 C.3        1 MOL1        -0.2258
      15    H10     19.977078   21.095961   22.237520 H          1 MOL1         0.1036
      16    H11     18.577036   20.966018   23.316469 H          1 MOL1         0.1036
      17    H12     18.475660   20.306794   21.682986 H          1 MOL1         0.1036
@<TRIPOS>BOND
    1     1     2    1
    2     1     3    1
    3     1     4    1
    4     1     5    1
    5     5     6    1
    6     5     7    1
    7     5     8    1
    8     8     9    1
    9     8    10    1
   10     8    11    1
   11    11    12    1
   12    11    13    1
   13    11    14    1
   14    14    15    1
   15    14    16    1
   16    14    17    1
@<TRIPOS>SUBSTRUCTURE
       1 MOL1            1 RESIDUE      1      MOL     
@<SCITEGIC>MOL_PROPERTY
VConf Rank
SciTegic.value.IntegerValue
508

@<SCITEGIC>MOL_PROPERTY
Conf_Id
SciTegic.value.IntegerValue
44

@<SCITEGIC>MOL_PROPERTY
Delta U+W
SciTegic.value.DoubleValue
2.712

@<SCITEGIC>MOL_PROPERTY
U+W
SciTegic.value.DoubleValue
-13.153

@<SCITEGIC>MOL_PROPERTY
Grad RMS
SciTegic.value.DoubleValue
0.000000

@<SCITEGIC>MOL_PROPERTY
U
SciTegic.value.DoubleValue
47.423

@<SCITEGIC>MOL_PROPERTY
W
SciTegic.value.DoubleValue
-60.576

@<SCITEGIC>MOL_PROPERTY
W(PB)
SciTegic.value.DoubleValue
-62.262

@<SCITEGIC>MOL_PROPERTY
W(SA)
SciTegic.value.DoubleValue
1.687

@<SCITEGIC>MOL_PROPERTY
Valence
SciTegic.value.DoubleValue
2.414

@<SCITEGIC>MOL_PROPERTY
Coulomb
SciTegic.value.DoubleValue
44.831

@<SCITEGIC>MOL_PROPERTY
VdW
SciTegic.value.DoubleValue
0.178

@<SCITEGIC>MOL_PROPERTY
VdW6
SciTegic.value.DoubleValue
-3.743

@<SCITEGIC>MOL_PROPERTY
VdW12
SciTegic.value.DoubleValue
3.922

@<SCITEGIC>MOL_PROPERTY
Bond
SciTegic.value.DoubleValue
0.138

@<SCITEGIC>MOL_PROPERTY
Angle
SciTegic.value.DoubleValue
0.941

@<SCITEGIC>MOL_PROPERTY
Pdih
SciTegic.value.DoubleValue
1.335

@<SCITEGIC>MOL_PROPERTY
Idih
SciTegic.value.DoubleValue
0.000

@<SCITEGIC>MOL_PROPERTY
Tether
SciTegic.value.DoubleValue
0.000

@<TRIPOS>MOLECULE
guest-1_confgen4.mol2 : confsearch ligand conformer 509
          17          16           1
SMALL
USER_CHARGES
 
@<TRIPOS>ATOM
       1    N1      20.216958   19.213854   19.643079 N.4        1 MOL1        -0.5891
       2    H1      20.616459   18.315536   19.929210 H          1 MOL1         0.3726
       3    H2      20.999827   19.841464   19.436679 H          1 MOL1         0.3726
       4    H3      19.722928   19.053719   18.759361 H          1 MOL1         0.3726
       5    C1      19.299249   19.784932   20.706817 C.3        1 MOL1         0.0314
       6    H4      18.474661   19.083112   20.856176 H          1 MOL1         0.0999
       7    H5      18.882191   20.718857   20.320313 H          1 MOL1         0.0999
       8    C2      20.000754   20.057588   22.053469 C.3        1 MOL1        -0.1308
       9    H6      20.800752   20.794031   21.900487 H          1 MOL1         0.1025
      10    H7      19.280009   20.526697   22.736306 H          1 MOL1         0.1025
      11    C3      20.588965   18.791689   22.725082 C.3        1 MOL1        -0.1243
      12    H8      21.078038   19.084565   23.664728 H          1 MOL1         0.1025
      13    H9      21.378433   18.361591   22.093884 H          1 MOL1         0.1025
      14    C4      19.521260   17.715797   23.028829 C.3        1 MOL1        -0.2258
      15    H10     18.720427   18.121862   23.660371 H          1 MOL1         0.1036
      16    H11     19.970118   16.867587   23.561776 H          1 MOL1         0.1036
      17    H12     19.067612   17.325881   22.108982 H          1 MOL1         0.1036
@<TRIPOS>BOND
    1     1     2    1
    2     1     3    1
    3     1     4    1
    4     1     5    1
    5     5     6    1
    6     5     7    1
    7     5     8    1
    8     8     9    1
    9     8    10    1
   10     8    11    1
   11    11    12    1
   12    11    13    1
   13    11    14    1
   14    14    15    1
   15    14    16    1
   16    14    17    1
@<TRIPOS>SUBSTRUCTURE
       1 MOL1            1 RESIDUE      1      MOL     
@<SCITEGIC>MOL_PROPERTY
VConf Rank
SciTegic.value.IntegerValue
509

@<SCITEGIC>MOL_PROPERTY
Conf_Id
SciTegic.value.IntegerValue
1

@<SCITEGIC>MOL_PROPERTY
Delta U+W
SciTegic.value.DoubleValue
0.685

@<SCITEGIC>MOL_PROPERTY
U+W
SciTegic.value.DoubleValue
-15.179

@<SCITEGIC>MOL_PROPERTY
Grad RMS
SciTegic.value.DoubleValue
0.000000

@<SCITEGIC>MOL_PROPERTY
U
SciTegic.value.DoubleValue
45.697

@<SCITEGIC>MOL_PROPERTY
W
SciTegic.value.DoubleValue
-60.876

@<SCITEGIC>MOL_PROPERTY
W(PB)
SciTegic.value.DoubleValue
-62.586

@<SCITEGIC>MOL_PROPERTY
W(SA)
SciTegic.value.DoubleValue
1.710

@<SCITEGIC>MOL_PROPERTY
Valence
SciTegic.value.DoubleValue
1.263

@<SCITEGIC>MOL_PROPERTY
Coulomb
SciTegic.value.DoubleValue
44.179

@<SCITEGIC>MOL_PROPERTY
VdW
SciTegic.value.DoubleValue
0.255

@<SCITEGIC>MOL_PROPERTY
VdW6
SciTegic.value.DoubleValue
-3.552

@<SCITEGIC>MOL_PROPERTY
VdW12
SciTegic.value.DoubleValue
3.807

@<SCITEGIC>MOL_PROPERTY
Bond
SciTegic.value.DoubleValue
0.125

@<SCITEGIC>MOL_PROPERTY
Angle
SciTegic.value.DoubleValue
0.616

@<SCITEGIC>MOL_PROPERTY
Pdih
SciTegic.value.DoubleValue
0.521

@<SCITEGIC>MOL_PROPERTY
Idih
SciTegic.value.DoubleValue
0.000

@<SCITEGIC>MOL_PROPERTY
Tether
SciTegic.value.DoubleValue
0.000

@<TRIPOS>MOLECULE
guest-1_confgen4.mol2 : confsearch ligand conformer 510
          17          16           1
SMALL
USER_CHARGES
 
@<TRIPOS>ATOM
       1    N1      17.961157   18.897600   21.337180 N.4        1 MOL1        -0.5891
       2    H1      17.508518   18.419000   22.121678 H          1 MOL1         0.3726
       3    H2      18.392224   18.177111   20.751071 H          1 MOL1         0.3726
       4    H3      17.215578   19.328825   20.781460 H          1 MOL1         0.3726
       5    C1      18.976880   19.920396   21.808405 C.3        1 MOL1         0.0314
       6    H4      18.443264   20.674601   22.393183 H          1 MOL1         0.0999
       7    H5      19.397754   20.411700   20.927332 H          1 MOL1         0.0999
       8    C2      20.113287   19.321587   22.662764 C.3        1 MOL1        -0.1308
       9    H6      20.759403   20.138658   23.010230 H          1 MOL1         0.1025
      10    H7      19.684202   18.866403   23.565228 H          1 MOL1         0.1025
      11    C3      20.975502   18.272116   21.917947 C.3        1 MOL1        -0.1243
      12    H8      20.360571   17.404168   21.643759 H          1 MOL1         0.1025
      13    H9      21.744543   17.893571   22.605831 H          1 MOL1         0.1025
      14    C4      21.665680   18.840441   20.656813 C.3        1 MOL1        -0.2258
      15    H10     22.315712   18.083338   20.199404 H          1 MOL1         0.1036
      16    H11     22.288153   19.709769   20.905536 H          1 MOL1         0.1036
      17    H12     20.933559   19.148757   19.899919 H          1 MOL1         0.1036
@<TRIPOS>BOND
    1     1     2    1
    2     1     3    1
    3     1     4    1
    4     1     5    1
    5     5     6    1
    6     5     7    1
    7     5     8    1
    8     8     9    1
    9     8    10    1
   10     8    11    1
   11    11    12    1
   12    11    13    1
   13    11    14    1
   14    14    15    1
   15    14    16    1
   16    14    17    1
@<TRIPOS>SUBSTRUCTURE
       1 MOL1            1 RESIDUE      1      MOL     
@<SCITEGIC>MOL_PROPERTY
VConf Rank
SciTegic.value.IntegerValue
510

@<SCITEGIC>MOL_PROPERTY
Conf_Id
SciTegic.value.IntegerValue
43

@<SCITEGIC>MOL_PROPERTY
Delta U+W
SciTegic.value.DoubleValue
0.642

@<SCITEGIC>MOL_PROPERTY
U+W
SciTegic.value.DoubleValue
-15.222

@<SCITEGIC>MOL_PROPERTY
Grad RMS
SciTegic.value.DoubleValue
0.000000

@<SCITEGIC>MOL_PROPERTY
U
SciTegic.value.DoubleValue
45.697

@<SCITEGIC>MOL_PROPERTY
W
SciTegic.value.DoubleValue
-60.919

@<SCITEGIC>MOL_PROPERTY
W(PB)
SciTegic.value.DoubleValue
-62.631

@<SCITEGIC>MOL_PROPERTY
W(SA)
SciTegic.value.DoubleValue
1.712

@<SCITEGIC>MOL_PROPERTY
Valence
SciTegic.value.DoubleValue
1.262

@<SCITEGIC>MOL_PROPERTY
Coulomb
SciTegic.value.DoubleValue
44.179

@<SCITEGIC>MOL_PROPERTY
VdW
SciTegic.value.DoubleValue
0.255

@<SCITEGIC>MOL_PROPERTY
VdW6
SciTegic.value.DoubleValue
-3.552

@<SCITEGIC>MOL_PROPERTY
VdW12
SciTegic.value.DoubleValue
3.807

@<SCITEGIC>MOL_PROPERTY
Bond
SciTegic.value.DoubleValue
0.125

@<SCITEGIC>MOL_PROPERTY
Angle
SciTegic.value.DoubleValue
0.616

@<SCITEGIC>MOL_PROPERTY
Pdih
SciTegic.value.DoubleValue
0.521

@<SCITEGIC>MOL_PROPERTY
Idih
SciTegic.value.DoubleValue
0.000

@<SCITEGIC>MOL_PROPERTY
Tether
SciTegic.value.DoubleValue
0.000

@<TRIPOS>MOLECULE
guest-1_confgen4.mol2 : confsearch ligand conformer 511
          17          16           1
SMALL
USER_CHARGES
 
@<TRIPOS>ATOM
       1    N1      17.891728   17.692079   20.930816 N.4        1 MOL1        -0.5891
       2    H1      17.738755   17.231477   21.833114 H          1 MOL1         0.3726
       3    H2      18.370679   17.017654   20.326289 H          1 MOL1         0.3726
       4    H3      16.966488   17.853324   20.519915 H          1 MOL1         0.3726
       5    C1      18.675908   18.980920   21.076791 C.3        1 MOL1         0.0314
       6    H4      18.094197   19.660664   21.705348 H          1 MOL1         0.0999
       7    H5      18.773684   19.430763   20.085023 H          1 MOL1         0.0999
       8    C2      20.072321   18.775161   21.691572 C.3        1 MOL1        -0.1308
       9    H6      19.970913   18.309122   22.680771 H          1 MOL1         0.1025
      10    H7      20.648108   18.080137   21.065951 H          1 MOL1         0.1025
      11    C3      20.836476   20.110982   21.822609 C.3        1 MOL1        -0.1243
      12    H8      20.259036   20.808291   22.446027 H          1 MOL1         0.1025
      13    H9      20.935472   20.579551   20.833181 H          1 MOL1         0.1025
      14    C4      22.238254   19.912432   22.438688 C.3        1 MOL1        -0.2258
      15    H10     22.764257   20.872237   22.523215 H          1 MOL1         0.1036
      16    H11     22.851958   19.246183   21.818457 H          1 MOL1         0.1036
      17    H12     22.170174   19.476669   23.444015 H          1 MOL1         0.1036
@<TRIPOS>BOND
    1     1     2    1
    2     1     3    1
    3     1     4    1
    4     1     5    1
    5     5     6    1
    6     5     7    1
    7     5     8    1
    8     8     9    1
    9     8    10    1
   10     8    11    1
   11    11    12    1
   12    11    13    1
   13    11    14    1
   14    14    15    1
   15    14    16    1
   16    14    17    1
@<TRIPOS>SUBSTRUCTURE
       1 MOL1            1 RESIDUE      1      MOL     
@<SCITEGIC>MOL_PROPERTY
VConf Rank
SciTegic.value.IntegerValue
511

@<SCITEGIC>MOL_PROPERTY
Conf_Id
SciTegic.value.IntegerValue
7

@<SCITEGIC>MOL_PROPERTY
Delta U+W
SciTegic.value.DoubleValue
0.000

@<SCITEGIC>MOL_PROPERTY
U+W
SciTegic.value.DoubleValue
-15.865

@<SCITEGIC>MOL_PROPERTY
Grad RMS
SciTegic.value.DoubleValue
0.000000

@<SCITEGIC>MOL_PROPERTY
U
SciTegic.value.DoubleValue
44.664

@<SCITEGIC>MOL_PROPERTY
W
SciTegic.value.DoubleValue
-60.529

@<SCITEGIC>MOL_PROPERTY
W(PB)
SciTegic.value.DoubleValue
-62.309

@<SCITEGIC>MOL_PROPERTY
W(SA)
SciTegic.value.DoubleValue
1.780

@<SCITEGIC>MOL_PROPERTY
Valence
SciTegic.value.DoubleValue
0.872

@<SCITEGIC>MOL_PROPERTY
Coulomb
SciTegic.value.DoubleValue
43.648

@<SCITEGIC>MOL_PROPERTY
VdW
SciTegic.value.DoubleValue
0.144

@<SCITEGIC>MOL_PROPERTY
VdW6
SciTegic.value.DoubleValue
-2.370

@<SCITEGIC>MOL_PROPERTY
VdW12
SciTegic.value.DoubleValue
2.515

@<SCITEGIC>MOL_PROPERTY
Bond
SciTegic.value.DoubleValue
0.080

@<SCITEGIC>MOL_PROPERTY
Angle
SciTegic.value.DoubleValue
0.376

@<SCITEGIC>MOL_PROPERTY
Pdih
SciTegic.value.DoubleValue
0.416

@<SCITEGIC>MOL_PROPERTY
Idih
SciTegic.value.DoubleValue
0.000

@<SCITEGIC>MOL_PROPERTY
Tether
SciTegic.value.DoubleValue
0.000

@<TRIPOS>MOLECULE
guest-1_confgen4.mol2 : confsearch ligand conformer 512
          17          16           1
SMALL
USER_CHARGES
 
@<TRIPOS>ATOM
       1    N1      21.050014   21.021240   20.690858 N.4        1 MOL1        -0.5891
       2    H1      20.413830   21.823280   20.731488 H          1 MOL1         0.3726
       3    H2      21.078480   20.709140   19.715445 H          1 MOL1         0.3726
       4    H3      21.985764   21.373660   20.916728 H          1 MOL1         0.3726
       5    C1      20.624080   19.910456   21.630057 C.3        1 MOL1         0.0314
       6    H4      20.645287   20.303622   22.650046 H          1 MOL1         0.0999
       7    H5      21.361880   19.107271   21.556700 H          1 MOL1         0.0999
       8    C2      19.220450   19.356919   21.318003 C.3        1 MOL1        -0.1308
       9    H6      18.493142   20.178826   21.355004 H          1 MOL1         0.1025
      10    H7      19.198698   18.963559   20.292974 H          1 MOL1         0.1025
      11    C3      18.781671   18.251765   22.306999 C.3        1 MOL1        -0.1243
      12    H8      17.747037   17.959161   22.079192 H          1 MOL1         0.1025
      13    H9      18.770802   18.653398   23.330110 H          1 MOL1         0.1025
      14    C4      19.684117   16.997803   22.251068 C.3        1 MOL1        -0.2258
      15    H10     19.717141   16.579731   21.236549 H          1 MOL1         0.1036
      16    H11     19.301412   16.217923   22.922135 H          1 MOL1         0.1036
      17    H12     20.711578   17.226019   22.561445 H          1 MOL1         0.1036
@<TRIPOS>BOND
    1     1     2    1
    2     1     3    1
    3     1     4    1
    4     1     5    1
    5     5     6    1
    6     5     7    1
    7     5     8    1
    8     8     9    1
    9     8    10    1
   10     8    11    1
   11    11    12    1
   12    11    13    1
   13    11    14    1
   14    14    15    1
   15    14    16    1
   16    14    17    1
@<TRIPOS>SUBSTRUCTURE
       1 MOL1            1 RESIDUE      1      MOL     
@<SCITEGIC>MOL_PROPERTY
VConf Rank
SciTegic.value.IntegerValue
512

@<SCITEGIC>MOL_PROPERTY
Conf_Id
SciTegic.value.IntegerValue
36

@<SCITEGIC>MOL_PROPERTY
Delta U+W
SciTegic.value.DoubleValue
0.275

@<SCITEGIC>MOL_PROPERTY
U+W
SciTegic.value.DoubleValue
-15.590

@<SCITEGIC>MOL_PROPERTY
Grad RMS
SciTegic.value.DoubleValue
0.000000

@<SCITEGIC>MOL_PROPERTY
U
SciTegic.value.DoubleValue
45.174

@<SCITEGIC>MOL_PROPERTY
W
SciTegic.value.DoubleValue
-60.765

@<SCITEGIC>MOL_PROPERTY
W(PB)
SciTegic.value.DoubleValue
-62.518

@<SCITEGIC>MOL_PROPERTY
W(SA)
SciTegic.value.DoubleValue
1.754

@<SCITEGIC>MOL_PROPERTY
Valence
SciTegic.value.DoubleValue
1.161

@<SCITEGIC>MOL_PROPERTY
Coulomb
SciTegic.value.DoubleValue
43.789

@<SCITEGIC>MOL_PROPERTY
VdW
SciTegic.value.DoubleValue
0.224

@<SCITEGIC>MOL_PROPERTY
VdW6
SciTegic.value.DoubleValue
-2.897

@<SCITEGIC>MOL_PROPERTY
VdW12
SciTegic.value.DoubleValue
3.121

@<SCITEGIC>MOL_PROPERTY
Bond
SciTegic.value.DoubleValue
0.100

@<SCITEGIC>MOL_PROPERTY
Angle
SciTegic.value.DoubleValue
0.500

@<SCITEGIC>MOL_PROPERTY
Pdih
SciTegic.value.DoubleValue
0.561

@<SCITEGIC>MOL_PROPERTY
Idih
SciTegic.value.DoubleValue
0.000

@<SCITEGIC>MOL_PROPERTY
Tether
SciTegic.value.DoubleValue
0.000

@<TRIPOS>MOLECULE
guest-1_confgen4.mol2 : confsearch ligand conformer 513
          17          16           1
SMALL
USER_CHARGES
 
@<TRIPOS>ATOM
       1    N1      18.352233   18.060542   21.318426 N.4        1 MOL1        -0.5891
       2    H1      18.881755   17.661311   22.097571 H          1 MOL1         0.3726
       3    H2      18.516223   17.460990   20.504102 H          1 MOL1         0.3726
       4    H3      17.358072   17.976705   21.553879 H          1 MOL1         0.3726
       5    C1      18.748559   19.499214   21.047912 C.3        1 MOL1         0.0314
       6    H4      18.489014   20.102076   21.922267 H          1 MOL1         0.0999
       7    H5      18.141753   19.845313   20.206759 H          1 MOL1         0.0999
       8    C2      20.240661   19.692393   20.704509 C.3        1 MOL1        -0.1308
       9    H6      20.567035   18.917187   19.998631 H          1 MOL1         0.1025
      10    H7      20.340615   20.646915   20.170895 H          1 MOL1         0.1025
      11    C3      21.183235   19.733039   21.934390 C.3        1 MOL1        -0.1243
      12    H8      20.884486   20.553414   22.602039 H          1 MOL1         0.1025
      13    H9      22.196297   19.978570   21.585954 H          1 MOL1         0.1025
      14    C4      21.244985   18.413065   22.736099 C.3        1 MOL1        -0.2258
      15    H10     20.311099   18.228366   23.279624 H          1 MOL1         0.1036
      16    H11     22.048605   18.458533   23.482614 H          1 MOL1         0.1036
      17    H12     21.448569   17.557083   22.079591 H          1 MOL1         0.1036
@<TRIPOS>BOND
    1     1     2    1
    2     1     3    1
    3     1     4    1
    4     1     5    1
    5     5     6    1
    6     5     7    1
    7     5     8    1
    8     8     9    1
    9     8    10    1
   10     8    11    1
   11    11    12    1
   12    11    13    1
   13    11    14    1
   14    14    15    1
   15    14    16    1
   16    14    17    1
@<TRIPOS>SUBSTRUCTURE
       1 MOL1            1 RESIDUE      1      MOL     
@<SCITEGIC>MOL_PROPERTY
VConf Rank
SciTegic.value.IntegerValue
513

@<SCITEGIC>MOL_PROPERTY
Conf_Id
SciTegic.value.IntegerValue
19

@<SCITEGIC>MOL_PROPERTY
Delta U+W
SciTegic.value.DoubleValue
2.662

@<SCITEGIC>MOL_PROPERTY
U+W
SciTegic.value.DoubleValue
-13.203

@<SCITEGIC>MOL_PROPERTY
Grad RMS
SciTegic.value.DoubleValue
0.000000

@<SCITEGIC>MOL_PROPERTY
U
SciTegic.value.DoubleValue
47.423

@<SCITEGIC>MOL_PROPERTY
W
SciTegic.value.DoubleValue
-60.626

@<SCITEGIC>MOL_PROPERTY
W(PB)
SciTegic.value.DoubleValue
-62.328

@<SCITEGIC>MOL_PROPERTY
W(SA)
SciTegic.value.DoubleValue
1.702

@<SCITEGIC>MOL_PROPERTY
Valence
SciTegic.value.DoubleValue
2.414

@<SCITEGIC>MOL_PROPERTY
Coulomb
SciTegic.value.DoubleValue
44.831

@<SCITEGIC>MOL_PROPERTY
VdW
SciTegic.value.DoubleValue
0.178

@<SCITEGIC>MOL_PROPERTY
VdW6
SciTegic.value.DoubleValue
-3.743

@<SCITEGIC>MOL_PROPERTY
VdW12
SciTegic.value.DoubleValue
3.921

@<SCITEGIC>MOL_PROPERTY
Bond
SciTegic.value.DoubleValue
0.138

@<SCITEGIC>MOL_PROPERTY
Angle
SciTegic.value.DoubleValue
0.941

@<SCITEGIC>MOL_PROPERTY
Pdih
SciTegic.value.DoubleValue
1.335

@<SCITEGIC>MOL_PROPERTY
Idih
SciTegic.value.DoubleValue
0.000

@<SCITEGIC>MOL_PROPERTY
Tether
SciTegic.value.DoubleValue
0.000

@<TRIPOS>MOLECULE
guest-1_confgen4.mol2 : confsearch ligand conformer 514
          17          16           1
SMALL
USER_CHARGES
 
@<TRIPOS>ATOM
       1    N1      20.150436   20.837941   22.076589 N.4        1 MOL1        -0.5891
       2    H1      19.735926   21.689781   22.468218 H          1 MOL1         0.3726
       3    H2      21.053037   21.105433   21.672560 H          1 MOL1         0.3726
       4    H3      20.345811   20.209498   22.860000 H          1 MOL1         0.3726
       5    C1      19.242838   20.189913   21.048793 C.3        1 MOL1         0.0314
       6    H4      19.087914   20.922380   20.251907 H          1 MOL1         0.0999
       7    H5      18.275012   19.989465   21.516164 H          1 MOL1         0.0999
       8    C2      19.805554   18.890616   20.434961 C.3        1 MOL1        -0.1308
       9    H6      19.292894   18.722702   19.478494 H          1 MOL1         0.1025
      10    H7      20.867639   19.020911   20.188529 H          1 MOL1         0.1025
      11    C3      19.606310   17.627210   21.310639 C.3        1 MOL1        -0.1243
      12    H8      19.944603   16.752318   20.737828 H          1 MOL1         0.1025
      13    H9      18.534316   17.472153   21.497210 H          1 MOL1         0.1025
      14    C4      20.364394   17.656948   22.657228 C.3        1 MOL1        -0.2258
      15    H10     21.424120   17.904434   22.512719 H          1 MOL1         0.1036
      16    H11     20.315450   16.673804   23.143221 H          1 MOL1         0.1036
      17    H12     19.922960   18.381338   23.351544 H          1 MOL1         0.1036
@<TRIPOS>BOND
    1     1     2    1
    2     1     3    1
    3     1     4    1
    4     1     5    1
    5     5     6    1
    6     5     7    1
    7     5     8    1
    8     8     9    1
    9     8    10    1
   10     8    11    1
   11    11    12    1
   12    11    13    1
   13    11    14    1
   14    14    15    1
   15    14    16    1
   16    14    17    1
@<TRIPOS>SUBSTRUCTURE
       1 MOL1            1 RESIDUE      1      MOL     
@<SCITEGIC>MOL_PROPERTY
VConf Rank
SciTegic.value.IntegerValue
514

@<SCITEGIC>MOL_PROPERTY
Conf_Id
SciTegic.value.IntegerValue
44

@<SCITEGIC>MOL_PROPERTY
Delta U+W
SciTegic.value.DoubleValue
2.712

@<SCITEGIC>MOL_PROPERTY
U+W
SciTegic.value.DoubleValue
-13.153

@<SCITEGIC>MOL_PROPERTY
Grad RMS
SciTegic.value.DoubleValue
0.000000

@<SCITEGIC>MOL_PROPERTY
U
SciTegic.value.DoubleValue
47.423

@<SCITEGIC>MOL_PROPERTY
W
SciTegic.value.DoubleValue
-60.576

@<SCITEGIC>MOL_PROPERTY
W(PB)
SciTegic.value.DoubleValue
-62.262

@<SCITEGIC>MOL_PROPERTY
W(SA)
SciTegic.value.DoubleValue
1.687

@<SCITEGIC>MOL_PROPERTY
Valence
SciTegic.value.DoubleValue
2.414

@<SCITEGIC>MOL_PROPERTY
Coulomb
SciTegic.value.DoubleValue
44.831

@<SCITEGIC>MOL_PROPERTY
VdW
SciTegic.value.DoubleValue
0.178

@<SCITEGIC>MOL_PROPERTY
VdW6
SciTegic.value.DoubleValue
-3.743

@<SCITEGIC>MOL_PROPERTY
VdW12
SciTegic.value.DoubleValue
3.922

@<SCITEGIC>MOL_PROPERTY
Bond
SciTegic.value.DoubleValue
0.138

@<SCITEGIC>MOL_PROPERTY
Angle
SciTegic.value.DoubleValue
0.941

@<SCITEGIC>MOL_PROPERTY
Pdih
SciTegic.value.DoubleValue
1.335

@<SCITEGIC>MOL_PROPERTY
Idih
SciTegic.value.DoubleValue
0.000

@<SCITEGIC>MOL_PROPERTY
Tether
SciTegic.value.DoubleValue
0.000

@<TRIPOS>MOLECULE
guest-1_confgen4.mol2 : confsearch ligand conformer 515
          17          16           1
SMALL
USER_CHARGES
 
@<TRIPOS>ATOM
       1    N1      20.514006   20.633245   20.574916 N.4        1 MOL1        -0.5891
       2    H1      19.510863   20.521966   20.402382 H          1 MOL1         0.3726
       3    H2      21.000775   20.366929   19.713806 H          1 MOL1         0.3726
       4    H3      20.684186   21.634204   20.715584 H          1 MOL1         0.3726
       5    C1      20.974446   19.810471   21.762726 C.3        1 MOL1         0.0314
       6    H4      20.440198   20.164246   22.648292 H          1 MOL1         0.0999
       7    H5      22.040008   20.006222   21.910371 H          1 MOL1         0.0999
       8    C2      20.752645   18.293279   21.592862 C.3        1 MOL1        -0.1308
       9    H6      21.325569   17.940209   20.725193 H          1 MOL1         0.1025
      10    H7      21.171995   17.777014   22.466602 H          1 MOL1         0.1025
      11    C3      19.266655   17.888505   21.426893 C.3        1 MOL1        -0.1243
      12    H8      19.209115   16.798488   21.298608 H          1 MOL1         0.1025
      13    H9      18.857335   18.324044   20.505255 H          1 MOL1         0.1025
      14    C4      18.389025   18.299376   22.631364 C.3        1 MOL1        -0.2258
      15    H10     18.777819   17.874652   23.565985 H          1 MOL1         0.1036
      16    H11     17.361447   17.936077   22.500727 H          1 MOL1         0.1036
      17    H12     18.342555   19.389837   22.743983 H          1 MOL1         0.1036
@<TRIPOS>BOND
    1     1     2    1
    2     1     3    1
    3     1     4    1
    4     1     5    1
    5     5     6    1
    6     5     7    1
    7     5     8    1
    8     8     9    1
    9     8    10    1
   10     8    11    1
   11    11    12    1
   12    11    13    1
   13    11    14    1
   14    14    15    1
   15    14    16    1
   16    14    17    1
@<TRIPOS>SUBSTRUCTURE
       1 MOL1            1 RESIDUE      1      MOL     
@<SCITEGIC>MOL_PROPERTY
VConf Rank
SciTegic.value.IntegerValue
515

@<SCITEGIC>MOL_PROPERTY
Conf_Id
SciTegic.value.IntegerValue
1

@<SCITEGIC>MOL_PROPERTY
Delta U+W
SciTegic.value.DoubleValue
0.685

@<SCITEGIC>MOL_PROPERTY
U+W
SciTegic.value.DoubleValue
-15.179

@<SCITEGIC>MOL_PROPERTY
Grad RMS
SciTegic.value.DoubleValue
0.000000

@<SCITEGIC>MOL_PROPERTY
U
SciTegic.value.DoubleValue
45.697

@<SCITEGIC>MOL_PROPERTY
W
SciTegic.value.DoubleValue
-60.876

@<SCITEGIC>MOL_PROPERTY
W(PB)
SciTegic.value.DoubleValue
-62.586

@<SCITEGIC>MOL_PROPERTY
W(SA)
SciTegic.value.DoubleValue
1.710

@<SCITEGIC>MOL_PROPERTY
Valence
SciTegic.value.DoubleValue
1.263

@<SCITEGIC>MOL_PROPERTY
Coulomb
SciTegic.value.DoubleValue
44.179

@<SCITEGIC>MOL_PROPERTY
VdW
SciTegic.value.DoubleValue
0.255

@<SCITEGIC>MOL_PROPERTY
VdW6
SciTegic.value.DoubleValue
-3.552

@<SCITEGIC>MOL_PROPERTY
VdW12
SciTegic.value.DoubleValue
3.807

@<SCITEGIC>MOL_PROPERTY
Bond
SciTegic.value.DoubleValue
0.125

@<SCITEGIC>MOL_PROPERTY
Angle
SciTegic.value.DoubleValue
0.616

@<SCITEGIC>MOL_PROPERTY
Pdih
SciTegic.value.DoubleValue
0.521

@<SCITEGIC>MOL_PROPERTY
Idih
SciTegic.value.DoubleValue
0.000

@<SCITEGIC>MOL_PROPERTY
Tether
SciTegic.value.DoubleValue
0.000

@<TRIPOS>MOLECULE
guest-1_confgen4.mol2 : confsearch ligand conformer 516
          17          16           1
SMALL
USER_CHARGES
 
@<TRIPOS>ATOM
       1    N1      19.711761   20.400623   23.020807 N.4        1 MOL1        -0.5891
       2    H1      20.271347   21.236003   22.824891 H          1 MOL1         0.3726
       3    H2      20.349977   19.687139   23.384223 H          1 MOL1         0.3726
       4    H3      19.070205   20.644011   23.782277 H          1 MOL1         0.3726
       5    C1      18.968965   19.915897   21.790705 C.3        1 MOL1         0.0314
       6    H4      18.282860   20.709262   21.481884 H          1 MOL1         0.0999
       7    H5      18.372392   19.045371   22.075468 H          1 MOL1         0.0999
       8    C2      19.891799   19.550403   20.609726 C.3        1 MOL1        -0.1308
       9    H6      19.268207   19.274377   19.749060 H          1 MOL1         0.1025
      10    H7      20.456679   20.441240   20.304652 H          1 MOL1         0.1025
      11    C3      20.878327   18.395783   20.914972 C.3        1 MOL1        -0.1243
      12    H8      21.570906   18.692300   21.714387 H          1 MOL1         0.1025
      13    H9      21.499808   18.217226   20.026275 H          1 MOL1         0.1025
      14    C4      20.167737   17.079035   21.303602 C.3        1 MOL1        -0.2258
      15    H10     20.900124   16.273966   21.446577 H          1 MOL1         0.1036
      16    H11     19.469639   16.760774   20.518467 H          1 MOL1         0.1036
      17    H12     19.605253   17.184630   22.239769 H          1 MOL1         0.1036
@<TRIPOS>BOND
    1     1     2    1
    2     1     3    1
    3     1     4    1
    4     1     5    1
    5     5     6    1
    6     5     7    1
    7     5     8    1
    8     8     9    1
    9     8    10    1
   10     8    11    1
   11    11    12    1
   12    11    13    1
   13    11    14    1
   14    14    15    1
   15    14    16    1
   16    14    17    1
@<TRIPOS>SUBSTRUCTURE
       1 MOL1            1 RESIDUE      1      MOL     
@<SCITEGIC>MOL_PROPERTY
VConf Rank
SciTegic.value.IntegerValue
516

@<SCITEGIC>MOL_PROPERTY
Conf_Id
SciTegic.value.IntegerValue
43

@<SCITEGIC>MOL_PROPERTY
Delta U+W
SciTegic.value.DoubleValue
0.642

@<SCITEGIC>MOL_PROPERTY
U+W
SciTegic.value.DoubleValue
-15.222

@<SCITEGIC>MOL_PROPERTY
Grad RMS
SciTegic.value.DoubleValue
0.000000

@<SCITEGIC>MOL_PROPERTY
U
SciTegic.value.DoubleValue
45.697

@<SCITEGIC>MOL_PROPERTY
W
SciTegic.value.DoubleValue
-60.919

@<SCITEGIC>MOL_PROPERTY
W(PB)
SciTegic.value.DoubleValue
-62.631

@<SCITEGIC>MOL_PROPERTY
W(SA)
SciTegic.value.DoubleValue
1.712

@<SCITEGIC>MOL_PROPERTY
Valence
SciTegic.value.DoubleValue
1.262

@<SCITEGIC>MOL_PROPERTY
Coulomb
SciTegic.value.DoubleValue
44.179

@<SCITEGIC>MOL_PROPERTY
VdW
SciTegic.value.DoubleValue
0.255

@<SCITEGIC>MOL_PROPERTY
VdW6
SciTegic.value.DoubleValue
-3.552

@<SCITEGIC>MOL_PROPERTY
VdW12
SciTegic.value.DoubleValue
3.807

@<SCITEGIC>MOL_PROPERTY
Bond
SciTegic.value.DoubleValue
0.125

@<SCITEGIC>MOL_PROPERTY
Angle
SciTegic.value.DoubleValue
0.616

@<SCITEGIC>MOL_PROPERTY
Pdih
SciTegic.value.DoubleValue
0.521

@<SCITEGIC>MOL_PROPERTY
Idih
SciTegic.value.DoubleValue
0.000

@<SCITEGIC>MOL_PROPERTY
Tether
SciTegic.value.DoubleValue
0.000

@<TRIPOS>MOLECULE
guest-1_confgen4.mol2 : confsearch ligand conformer 517
          17          16           1
SMALL
USER_CHARGES
 
@<TRIPOS>ATOM
       1    N1      19.645748   21.009392   23.244210 N.4        1 MOL1        -0.5891
       2    H1      19.093931   21.614710   22.628756 H          1 MOL1         0.3726
       3    H2      20.609474   21.356436   23.222048 H          1 MOL1         0.3726
       4    H3      19.298478   21.160081   24.196894 H          1 MOL1         0.3726
       5    C1      19.557252   19.552378   22.836001 C.3        1 MOL1         0.0314
       6    H4      18.511238   19.243303   22.912498 H          1 MOL1         0.0999
       7    H5      20.140905   18.965564   23.550509 H          1 MOL1         0.0999
       8    C2      20.071294   19.289886   21.408724 C.3        1 MOL1        -0.1308
       9    H6      19.493117   19.892517   20.695606 H          1 MOL1         0.1025
      10    H7      21.117208   19.615592   21.331462 H          1 MOL1         0.1025
      11    C3      19.963513   17.795595   21.033224 C.3        1 MOL1        -0.1243
      12    H8      18.917265   17.468131   21.113585 H          1 MOL1         0.1025
      13    H9      20.539425   17.191549   21.748611 H          1 MOL1         0.1025
      14    C4      20.477333   17.524645   19.602654 C.3        1 MOL1        -0.2258
      15    H10     20.392288   16.458485   19.355433 H          1 MOL1         0.1036
      16    H11     21.532437   17.810282   19.500799 H          1 MOL1         0.1036
      17    H12     19.897502   18.089102   18.860770 H          1 MOL1         0.1036
@<TRIPOS>BOND
    1     1     2    1
    2     1     3    1
    3     1     4    1
    4     1     5    1
    5     5     6    1
    6     5     7    1
    7     5     8    1
    8     8     9    1
    9     8    10    1
   10     8    11    1
   11    11    12    1
   12    11    13    1
   13    11    14    1
   14    14    15    1
   15    14    16    1
   16    14    17    1
@<TRIPOS>SUBSTRUCTURE
       1 MOL1            1 RESIDUE      1      MOL     
@<SCITEGIC>MOL_PROPERTY
VConf Rank
SciTegic.value.IntegerValue
517

@<SCITEGIC>MOL_PROPERTY
Conf_Id
SciTegic.value.IntegerValue
7

@<SCITEGIC>MOL_PROPERTY
Delta U+W
SciTegic.value.DoubleValue
0.000

@<SCITEGIC>MOL_PROPERTY
U+W
SciTegic.value.DoubleValue
-15.865

@<SCITEGIC>MOL_PROPERTY
Grad RMS
SciTegic.value.DoubleValue
0.000000

@<SCITEGIC>MOL_PROPERTY
U
SciTegic.value.DoubleValue
44.664

@<SCITEGIC>MOL_PROPERTY
W
SciTegic.value.DoubleValue
-60.529

@<SCITEGIC>MOL_PROPERTY
W(PB)
SciTegic.value.DoubleValue
-62.309

@<SCITEGIC>MOL_PROPERTY
W(SA)
SciTegic.value.DoubleValue
1.780

@<SCITEGIC>MOL_PROPERTY
Valence
SciTegic.value.DoubleValue
0.872

@<SCITEGIC>MOL_PROPERTY
Coulomb
SciTegic.value.DoubleValue
43.648

@<SCITEGIC>MOL_PROPERTY
VdW
SciTegic.value.DoubleValue
0.144

@<SCITEGIC>MOL_PROPERTY
VdW6
SciTegic.value.DoubleValue
-2.370

@<SCITEGIC>MOL_PROPERTY
VdW12
SciTegic.value.DoubleValue
2.515

@<SCITEGIC>MOL_PROPERTY
Bond
SciTegic.value.DoubleValue
0.080

@<SCITEGIC>MOL_PROPERTY
Angle
SciTegic.value.DoubleValue
0.376

@<SCITEGIC>MOL_PROPERTY
Pdih
SciTegic.value.DoubleValue
0.416

@<SCITEGIC>MOL_PROPERTY
Idih
SciTegic.value.DoubleValue
0.000

@<SCITEGIC>MOL_PROPERTY
Tether
SciTegic.value.DoubleValue
0.000

@<TRIPOS>MOLECULE
guest-1_confgen4.mol2 : confsearch ligand conformer 518
          17          16           1
SMALL
USER_CHARGES
 
@<TRIPOS>ATOM
       1    N1      20.583477   17.400584   23.208974 N.4        1 MOL1        -0.5891
       2    H1      20.752277   16.525187   22.704162 H          1 MOL1         0.3726
       3    H2      19.683197   17.302606   23.688081 H          1 MOL1         0.3726
       4    H3      21.301527   17.465489   23.937695 H          1 MOL1         0.3726
       5    C1      20.607229   18.602257   22.285516 C.3        1 MOL1         0.0314
       6    H4      21.601289   18.662044   21.834209 H          1 MOL1         0.0999
       7    H5      20.452655   19.496806   22.894391 H          1 MOL1         0.0999
       8    C2      19.538904   18.536949   21.177195 C.3        1 MOL1        -0.1308
       9    H6      19.678396   17.615193   20.596863 H          1 MOL1         0.1025
      10    H7      18.540607   18.475212   21.630495 H          1 MOL1         0.1025
      11    C3      19.599100   19.749134   20.218556 C.3        1 MOL1        -0.1243
      12    H8      18.869375   19.601402   19.410064 H          1 MOL1         0.1025
      13    H9      20.586986   19.793026   19.738621 H          1 MOL1         0.1025
      14    C4      19.304548   21.092744   20.924183 C.3        1 MOL1        -0.2258
      15    H10     18.324159   21.073217   21.417721 H          1 MOL1         0.1036
      16    H11     19.297142   21.915564   20.197602 H          1 MOL1         0.1036
      17    H12     20.064511   21.326358   21.680471 H          1 MOL1         0.1036
@<TRIPOS>BOND
    1     1     2    1
    2     1     3    1
    3     1     4    1
    4     1     5    1
    5     5     6    1
    6     5     7    1
    7     5     8    1
    8     8     9    1
    9     8    10    1
   10     8    11    1
   11    11    12    1
   12    11    13    1
   13    11    14    1
   14    14    15    1
   15    14    16    1
   16    14    17    1
@<TRIPOS>SUBSTRUCTURE
       1 MOL1            1 RESIDUE      1      MOL     
@<SCITEGIC>MOL_PROPERTY
VConf Rank
SciTegic.value.IntegerValue
518

@<SCITEGIC>MOL_PROPERTY
Conf_Id
SciTegic.value.IntegerValue
36

@<SCITEGIC>MOL_PROPERTY
Delta U+W
SciTegic.value.DoubleValue
0.275

@<SCITEGIC>MOL_PROPERTY
U+W
SciTegic.value.DoubleValue
-15.590

@<SCITEGIC>MOL_PROPERTY
Grad RMS
SciTegic.value.DoubleValue
0.000000

@<SCITEGIC>MOL_PROPERTY
U
SciTegic.value.DoubleValue
45.174

@<SCITEGIC>MOL_PROPERTY
W
SciTegic.value.DoubleValue
-60.765

@<SCITEGIC>MOL_PROPERTY
W(PB)
SciTegic.value.DoubleValue
-62.518

@<SCITEGIC>MOL_PROPERTY
W(SA)
SciTegic.value.DoubleValue
1.754

@<SCITEGIC>MOL_PROPERTY
Valence
SciTegic.value.DoubleValue
1.161

@<SCITEGIC>MOL_PROPERTY
Coulomb
SciTegic.value.DoubleValue
43.789

@<SCITEGIC>MOL_PROPERTY
VdW
SciTegic.value.DoubleValue
0.224

@<SCITEGIC>MOL_PROPERTY
VdW6
SciTegic.value.DoubleValue
-2.897

@<SCITEGIC>MOL_PROPERTY
VdW12
SciTegic.value.DoubleValue
3.121

@<SCITEGIC>MOL_PROPERTY
Bond
SciTegic.value.DoubleValue
0.100

@<SCITEGIC>MOL_PROPERTY
Angle
SciTegic.value.DoubleValue
0.500

@<SCITEGIC>MOL_PROPERTY
Pdih
SciTegic.value.DoubleValue
0.561

@<SCITEGIC>MOL_PROPERTY
Idih
SciTegic.value.DoubleValue
0.000

@<SCITEGIC>MOL_PROPERTY
Tether
SciTegic.value.DoubleValue
0.000

@<TRIPOS>MOLECULE
guest-1_confgen4.mol2 : confsearch ligand conformer 519
          17          16           1
SMALL
USER_CHARGES
 
@<TRIPOS>ATOM
       1    N1      20.950154   20.520997   21.319786 N.4        1 MOL1        -0.5891
       2    H1      20.650575   20.105717   20.433987 H          1 MOL1         0.3726
       3    H2      21.926336   20.246913   21.466162 H          1 MOL1         0.3726
       4    H3      20.942631   21.538413   21.194756 H          1 MOL1         0.3726
       5    C1      20.064340   20.087621   22.471979 C.3        1 MOL1         0.0314
       6    H4      19.053513   20.464663   22.294863 H          1 MOL1         0.0999
       7    H5      20.452144   20.570949   23.372834 H          1 MOL1         0.0999
       8    C2      20.020331   18.561847   22.699334 C.3        1 MOL1        -0.1308
       9    H6      21.032752   18.142417   22.629967 H          1 MOL1         0.1025
      10    H7      19.691888   18.386559   23.732410 H          1 MOL1         0.1025
      11    C3      19.054969   17.799086   21.756479 C.3        1 MOL1        -0.1243
      12    H8      18.033770   18.185747   21.881648 H          1 MOL1         0.1025
      13    H9      19.022219   16.746890   22.072391 H          1 MOL1         0.1025
      14    C4      19.446275   17.852308   20.262180 C.3        1 MOL1        -0.2258
      15    H10     19.293462   18.853043   19.841639 H          1 MOL1         0.1036
      16    H11     18.823407   17.160027   19.680857 H          1 MOL1         0.1036
      17    H12     20.494433   17.561520   20.113988 H          1 MOL1         0.1036
@<TRIPOS>BOND
    1     1     2    1
    2     1     3    1
    3     1     4    1
    4     1     5    1
    5     5     6    1
    6     5     7    1
    7     5     8    1
    8     8     9    1
    9     8    10    1
   10     8    11    1
   11    11    12    1
   12    11    13    1
   13    11    14    1
   14    14    15    1
   15    14    16    1
   16    14    17    1
@<TRIPOS>SUBSTRUCTURE
       1 MOL1            1 RESIDUE      1      MOL     
@<SCITEGIC>MOL_PROPERTY
VConf Rank
SciTegic.value.IntegerValue
519

@<SCITEGIC>MOL_PROPERTY
Conf_Id
SciTegic.value.IntegerValue
19

@<SCITEGIC>MOL_PROPERTY
Delta U+W
SciTegic.value.DoubleValue
2.662

@<SCITEGIC>MOL_PROPERTY
U+W
SciTegic.value.DoubleValue
-13.203

@<SCITEGIC>MOL_PROPERTY
Grad RMS
SciTegic.value.DoubleValue
0.000000

@<SCITEGIC>MOL_PROPERTY
U
SciTegic.value.DoubleValue
47.423

@<SCITEGIC>MOL_PROPERTY
W
SciTegic.value.DoubleValue
-60.626

@<SCITEGIC>MOL_PROPERTY
W(PB)
SciTegic.value.DoubleValue
-62.328

@<SCITEGIC>MOL_PROPERTY
W(SA)
SciTegic.value.DoubleValue
1.702

@<SCITEGIC>MOL_PROPERTY
Valence
SciTegic.value.DoubleValue
2.414

@<SCITEGIC>MOL_PROPERTY
Coulomb
SciTegic.value.DoubleValue
44.831

@<SCITEGIC>MOL_PROPERTY
VdW
SciTegic.value.DoubleValue
0.178

@<SCITEGIC>MOL_PROPERTY
VdW6
SciTegic.value.DoubleValue
-3.743

@<SCITEGIC>MOL_PROPERTY
VdW12
SciTegic.value.DoubleValue
3.921

@<SCITEGIC>MOL_PROPERTY
Bond
SciTegic.value.DoubleValue
0.138

@<SCITEGIC>MOL_PROPERTY
Angle
SciTegic.value.DoubleValue
0.941

@<SCITEGIC>MOL_PROPERTY
Pdih
SciTegic.value.DoubleValue
1.335

@<SCITEGIC>MOL_PROPERTY
Idih
SciTegic.value.DoubleValue
0.000

@<SCITEGIC>MOL_PROPERTY
Tether
SciTegic.value.DoubleValue
0.000

@<TRIPOS>MOLECULE
guest-1_confgen4.mol2 : confsearch ligand conformer 520
          17          16           1
SMALL
USER_CHARGES
 
@<TRIPOS>ATOM
       1    N1      18.174623   18.373379   21.867391 N.4        1 MOL1        -0.5891
       2    H1      17.385762   18.272587   22.514202 H          1 MOL1         0.3726
       3    H2      18.002094   17.733205   21.086435 H          1 MOL1         0.3726
       4    H3      18.136993   19.324089   21.491124 H          1 MOL1         0.3726
       5    C1      19.500697   18.089494   22.546342 C.3        1 MOL1         0.0314
       6    H4      19.457549   17.060974   22.914883 H          1 MOL1         0.0999
       7    H5      19.599205   18.753626   23.409202 H          1 MOL1         0.0999
       8    C2      20.730152   18.242698   21.626244 C.3        1 MOL1        -0.1308
       9    H6      21.554227   17.668469   22.070099 H          1 MOL1         0.1025
      10    H7      20.530113   17.778119   20.651626 H          1 MOL1         0.1025
      11    C3      21.214178   19.703193   21.438155 C.3        1 MOL1        -0.1243
      12    H8      22.147560   19.686386   20.858064 H          1 MOL1         0.1025
      13    H9      21.471476   20.135983   22.415146 H          1 MOL1         0.1025
      14    C4      20.203229   20.623635   20.717288 C.3        1 MOL1        -0.2258
      15    H10     19.852930   20.173620   19.779243 H          1 MOL1         0.1036
      16    H11     20.672657   21.584807   20.470424 H          1 MOL1         0.1036
      17    H12     19.335767   20.842581   21.350734 H          1 MOL1         0.1036
@<TRIPOS>BOND
    1     1     2    1
    2     1     3    1
    3     1     4    1
    4     1     5    1
    5     5     6    1
    6     5     7    1
    7     5     8    1
    8     8     9    1
    9     8    10    1
   10     8    11    1
   11    11    12    1
   12    11    13    1
   13    11    14    1
   14    14    15    1
   15    14    16    1
   16    14    17    1
@<TRIPOS>SUBSTRUCTURE
       1 MOL1            1 RESIDUE      1      MOL     
@<SCITEGIC>MOL_PROPERTY
VConf Rank
SciTegic.value.IntegerValue
520

@<SCITEGIC>MOL_PROPERTY
Conf_Id
SciTegic.value.IntegerValue
44

@<SCITEGIC>MOL_PROPERTY
Delta U+W
SciTegic.value.DoubleValue
2.712

@<SCITEGIC>MOL_PROPERTY
U+W
SciTegic.value.DoubleValue
-13.153

@<SCITEGIC>MOL_PROPERTY
Grad RMS
SciTegic.value.DoubleValue
0.000000

@<SCITEGIC>MOL_PROPERTY
U
SciTegic.value.DoubleValue
47.423

@<SCITEGIC>MOL_PROPERTY
W
SciTegic.value.DoubleValue
-60.576

@<SCITEGIC>MOL_PROPERTY
W(PB)
SciTegic.value.DoubleValue
-62.262

@<SCITEGIC>MOL_PROPERTY
W(SA)
SciTegic.value.DoubleValue
1.687

@<SCITEGIC>MOL_PROPERTY
Valence
SciTegic.value.DoubleValue
2.414

@<SCITEGIC>MOL_PROPERTY
Coulomb
SciTegic.value.DoubleValue
44.831

@<SCITEGIC>MOL_PROPERTY
VdW
SciTegic.value.DoubleValue
0.178

@<SCITEGIC>MOL_PROPERTY
VdW6
SciTegic.value.DoubleValue
-3.743

@<SCITEGIC>MOL_PROPERTY
VdW12
SciTegic.value.DoubleValue
3.922

@<SCITEGIC>MOL_PROPERTY
Bond
SciTegic.value.DoubleValue
0.138

@<SCITEGIC>MOL_PROPERTY
Angle
SciTegic.value.DoubleValue
0.941

@<SCITEGIC>MOL_PROPERTY
Pdih
SciTegic.value.DoubleValue
1.335

@<SCITEGIC>MOL_PROPERTY
Idih
SciTegic.value.DoubleValue
0.000

@<SCITEGIC>MOL_PROPERTY
Tether
SciTegic.value.DoubleValue
0.000

@<TRIPOS>MOLECULE
guest-1_confgen4.mol2 : confsearch ligand conformer 521
          17          16           1
SMALL
USER_CHARGES
 
@<TRIPOS>ATOM
       1    N1      19.410057   18.365607   23.397460 N.4        1 MOL1        -0.5891
       2    H1      20.112661   17.721858   23.022784 H          1 MOL1         0.3726
       3    H2      18.509727   17.877445   23.375498 H          1 MOL1         0.3726
       4    H3      19.641169   18.519484   24.384160 H          1 MOL1         0.3726
       5    C1      19.367625   19.666194   22.618660 C.3        1 MOL1         0.0314
       6    H4      20.345115   20.147226   22.707681 H          1 MOL1         0.0999
       7    H5      18.627199   20.315096   23.094301 H          1 MOL1         0.0999
       8    C2      19.008990   19.488491   21.128786 C.3        1 MOL1        -0.1308
       9    H6      18.008841   19.042195   21.049592 H          1 MOL1         0.1025
      10    H7      18.938582   20.480732   20.663702 H          1 MOL1         0.1025
      11    C3      20.021440   18.625041   20.335720 C.3        1 MOL1        -0.1243
      12    H8      19.677430   18.542748   19.295148 H          1 MOL1         0.1025
      13    H9      20.035866   17.600613   20.731946 H          1 MOL1         0.1025
      14    C4      21.453291   19.207691   20.346632 C.3        1 MOL1        -0.2258
      15    H10     21.465276   20.232543   19.953436 H          1 MOL1         0.1036
      16    H11     22.120525   18.601269   19.720517 H          1 MOL1         0.1036
      17    H12     21.874848   19.224530   21.359526 H          1 MOL1         0.1036
@<TRIPOS>BOND
    1     1     2    1
    2     1     3    1
    3     1     4    1
    4     1     5    1
    5     5     6    1
    6     5     7    1
    7     5     8    1
    8     8     9    1
    9     8    10    1
   10     8    11    1
   11    11    12    1
   12    11    13    1
   13    11    14    1
   14    14    15    1
   15    14    16    1
   16    14    17    1
@<TRIPOS>SUBSTRUCTURE
       1 MOL1            1 RESIDUE      1      MOL     
@<SCITEGIC>MOL_PROPERTY
VConf Rank
SciTegic.value.IntegerValue
521

@<SCITEGIC>MOL_PROPERTY
Conf_Id
SciTegic.value.IntegerValue
1

@<SCITEGIC>MOL_PROPERTY
Delta U+W
SciTegic.value.DoubleValue
0.685

@<SCITEGIC>MOL_PROPERTY
U+W
SciTegic.value.DoubleValue
-15.179

@<SCITEGIC>MOL_PROPERTY
Grad RMS
SciTegic.value.DoubleValue
0.000000

@<SCITEGIC>MOL_PROPERTY
U
SciTegic.value.DoubleValue
45.697

@<SCITEGIC>MOL_PROPERTY
W
SciTegic.value.DoubleValue
-60.876

@<SCITEGIC>MOL_PROPERTY
W(PB)
SciTegic.value.DoubleValue
-62.586

@<SCITEGIC>MOL_PROPERTY
W(SA)
SciTegic.value.DoubleValue
1.710

@<SCITEGIC>MOL_PROPERTY
Valence
SciTegic.value.DoubleValue
1.263

@<SCITEGIC>MOL_PROPERTY
Coulomb
SciTegic.value.DoubleValue
44.179

@<SCITEGIC>MOL_PROPERTY
VdW
SciTegic.value.DoubleValue
0.255

@<SCITEGIC>MOL_PROPERTY
VdW6
SciTegic.value.DoubleValue
-3.552

@<SCITEGIC>MOL_PROPERTY
VdW12
SciTegic.value.DoubleValue
3.807

@<SCITEGIC>MOL_PROPERTY
Bond
SciTegic.value.DoubleValue
0.125

@<SCITEGIC>MOL_PROPERTY
Angle
SciTegic.value.DoubleValue
0.616

@<SCITEGIC>MOL_PROPERTY
Pdih
SciTegic.value.DoubleValue
0.521

@<SCITEGIC>MOL_PROPERTY
Idih
SciTegic.value.DoubleValue
0.000

@<SCITEGIC>MOL_PROPERTY
Tether
SciTegic.value.DoubleValue
0.000

@<TRIPOS>MOLECULE
guest-1_confgen4.mol2 : confsearch ligand conformer 522
          17          16           1
SMALL
USER_CHARGES
 
@<TRIPOS>ATOM
       1    N1      18.854639   18.677524   19.963981 N.4        1 MOL1        -0.5891
       2    H1      18.542136   17.702870   19.921923 H          1 MOL1         0.3726
       3    H2      19.838828   18.692296   19.681843 H          1 MOL1         0.3726
       4    H3      18.330209   19.189394   19.247301 H          1 MOL1         0.3726
       5    C1      18.656532   19.276191   21.343187 C.3        1 MOL1         0.0314
       6    H4      17.585243   19.262101   21.561544 H          1 MOL1         0.0999
       7    H5      18.980775   20.319542   21.310144 H          1 MOL1         0.0999
       8    C2      19.415336   18.530725   22.460513 C.3        1 MOL1        -0.1308
       9    H6      19.162713   18.991728   23.424598 H          1 MOL1         0.1025
      10    H7      19.053723   17.495231   22.512824 H          1 MOL1         0.1025
      11    C3      20.954338   18.529462   22.284356 C.3        1 MOL1        -0.1243
      12    H8      21.229043   17.989843   21.367840 H          1 MOL1         0.1025
      13    H9      21.404913   17.966783   23.113982 H          1 MOL1         0.1025
      14    C4      21.561424   19.950831   22.253449 C.3        1 MOL1        -0.2258
      15    H10     22.656346   19.900630   22.193497 H          1 MOL1         0.1036
      16    H11     21.301329   20.510823   23.161097 H          1 MOL1         0.1036
      17    H12     21.208460   20.522064   21.385661 H          1 MOL1         0.1036
@<TRIPOS>BOND
    1     1     2    1
    2     1     3    1
    3     1     4    1
    4     1     5    1
    5     5     6    1
    6     5     7    1
    7     5     8    1
    8     8     9    1
    9     8    10    1
   10     8    11    1
   11    11    12    1
   12    11    13    1
   13    11    14    1
   14    14    15    1
   15    14    16    1
   16    14    17    1
@<TRIPOS>SUBSTRUCTURE
       1 MOL1            1 RESIDUE      1      MOL     
@<SCITEGIC>MOL_PROPERTY
VConf Rank
SciTegic.value.IntegerValue
522

@<SCITEGIC>MOL_PROPERTY
Conf_Id
SciTegic.value.IntegerValue
43

@<SCITEGIC>MOL_PROPERTY
Delta U+W
SciTegic.value.DoubleValue
0.642

@<SCITEGIC>MOL_PROPERTY
U+W
SciTegic.value.DoubleValue
-15.222

@<SCITEGIC>MOL_PROPERTY
Grad RMS
SciTegic.value.DoubleValue
0.000000

@<SCITEGIC>MOL_PROPERTY
U
SciTegic.value.DoubleValue
45.697

@<SCITEGIC>MOL_PROPERTY
W
SciTegic.value.DoubleValue
-60.919

@<SCITEGIC>MOL_PROPERTY
W(PB)
SciTegic.value.DoubleValue
-62.631

@<SCITEGIC>MOL_PROPERTY
W(SA)
SciTegic.value.DoubleValue
1.712

@<SCITEGIC>MOL_PROPERTY
Valence
SciTegic.value.DoubleValue
1.262

@<SCITEGIC>MOL_PROPERTY
Coulomb
SciTegic.value.DoubleValue
44.179

@<SCITEGIC>MOL_PROPERTY
VdW
SciTegic.value.DoubleValue
0.255

@<SCITEGIC>MOL_PROPERTY
VdW6
SciTegic.value.DoubleValue
-3.552

@<SCITEGIC>MOL_PROPERTY
VdW12
SciTegic.value.DoubleValue
3.807

@<SCITEGIC>MOL_PROPERTY
Bond
SciTegic.value.DoubleValue
0.125

@<SCITEGIC>MOL_PROPERTY
Angle
SciTegic.value.DoubleValue
0.616

@<SCITEGIC>MOL_PROPERTY
Pdih
SciTegic.value.DoubleValue
0.521

@<SCITEGIC>MOL_PROPERTY
Idih
SciTegic.value.DoubleValue
0.000

@<SCITEGIC>MOL_PROPERTY
Tether
SciTegic.value.DoubleValue
0.000

@<TRIPOS>MOLECULE
guest-1_confgen4.mol2 : confsearch ligand conformer 523
          17          16           1
SMALL
USER_CHARGES
 
@<TRIPOS>ATOM
       1    N1      21.484903   17.575921   20.172086 N.4        1 MOL1        -0.5891
       2    H1      22.006471   17.143391   20.940578 H          1 MOL1         0.3726
       3    H2      22.074893   18.321534   19.790418 H          1 MOL1         0.3726
       4    H3      21.394178   16.865315   19.438795 H          1 MOL1         0.3726
       5    C1      20.134474   18.095265   20.623730 C.3        1 MOL1         0.0314
       6    H4      19.550681   17.245595   20.988106 H          1 MOL1         0.0999
       7    H5      19.624232   18.512444   19.751298 H          1 MOL1         0.0999
       8    C2      20.233752   19.165570   21.725933 C.3        1 MOL1        -0.1308
       9    H6      20.760308   18.747854   22.594405 H          1 MOL1         0.1025
      10    H7      20.833473   20.010399   21.361807 H          1 MOL1         0.1025
      11    C3      18.837820   19.666955   22.156642 C.3        1 MOL1        -0.1243
      12    H8      18.235874   18.821191   22.518125 H          1 MOL1         0.1025
      13    H9      18.308977   20.082260   21.287060 H          1 MOL1         0.1025
      14    C4      18.929474   20.740880   23.262192 C.3        1 MOL1        -0.2258
      15    H10     17.928244   21.083644   23.553909 H          1 MOL1         0.1036
      16    H11     19.497138   21.615222   22.917968 H          1 MOL1         0.1036
      17    H12     19.423516   20.344205   24.158729 H          1 MOL1         0.1036
@<TRIPOS>BOND
    1     1     2    1
    2     1     3    1
    3     1     4    1
    4     1     5    1
    5     5     6    1
    6     5     7    1
    7     5     8    1
    8     8     9    1
    9     8    10    1
   10     8    11    1
   11    11    12    1
   12    11    13    1
   13    11    14    1
   14    14    15    1
   15    14    16    1
   16    14    17    1
@<TRIPOS>SUBSTRUCTURE
       1 MOL1            1 RESIDUE      1      MOL     
@<SCITEGIC>MOL_PROPERTY
VConf Rank
SciTegic.value.IntegerValue
523

@<SCITEGIC>MOL_PROPERTY
Conf_Id
SciTegic.value.IntegerValue
7

@<SCITEGIC>MOL_PROPERTY
Delta U+W
SciTegic.value.DoubleValue
0.000

@<SCITEGIC>MOL_PROPERTY
U+W
SciTegic.value.DoubleValue
-15.865

@<SCITEGIC>MOL_PROPERTY
Grad RMS
SciTegic.value.DoubleValue
0.000000

@<SCITEGIC>MOL_PROPERTY
U
SciTegic.value.DoubleValue
44.664

@<SCITEGIC>MOL_PROPERTY
W
SciTegic.value.DoubleValue
-60.529

@<SCITEGIC>MOL_PROPERTY
W(PB)
SciTegic.value.DoubleValue
-62.309

@<SCITEGIC>MOL_PROPERTY
W(SA)
SciTegic.value.DoubleValue
1.780

@<SCITEGIC>MOL_PROPERTY
Valence
SciTegic.value.DoubleValue
0.872

@<SCITEGIC>MOL_PROPERTY
Coulomb
SciTegic.value.DoubleValue
43.648

@<SCITEGIC>MOL_PROPERTY
VdW
SciTegic.value.DoubleValue
0.144

@<SCITEGIC>MOL_PROPERTY
VdW6
SciTegic.value.DoubleValue
-2.370

@<SCITEGIC>MOL_PROPERTY
VdW12
SciTegic.value.DoubleValue
2.515

@<SCITEGIC>MOL_PROPERTY
Bond
SciTegic.value.DoubleValue
0.080

@<SCITEGIC>MOL_PROPERTY
Angle
SciTegic.value.DoubleValue
0.376

@<SCITEGIC>MOL_PROPERTY
Pdih
SciTegic.value.DoubleValue
0.416

@<SCITEGIC>MOL_PROPERTY
Idih
SciTegic.value.DoubleValue
0.000

@<SCITEGIC>MOL_PROPERTY
Tether
SciTegic.value.DoubleValue
0.000

@<TRIPOS>MOLECULE
guest-1_confgen4.mol2 : confsearch ligand conformer 524
          17          16           1
SMALL
USER_CHARGES
 
@<TRIPOS>ATOM
       1    N1      19.175055   17.006602   20.674832 N.4        1 MOL1        -0.5891
       2    H1      19.005342   17.141452   19.673502 H          1 MOL1         0.3726
       3    H2      18.259254   16.968158   21.132519 H          1 MOL1         0.3726
       4    H3      19.598736   16.079228   20.781207 H          1 MOL1         0.3726
       5    C1      20.053646   18.097562   21.253830 C.3        1 MOL1         0.0314
       6    H4      21.019299   18.060829   20.742388 H          1 MOL1         0.0999
       7    H5      20.216612   17.871892   22.310880 H          1 MOL1         0.0999
       8    C2      19.445663   19.506057   21.110809 C.3        1 MOL1        -0.1308
       9    H6      19.248843   19.706901   20.049300 H          1 MOL1         0.1025
      10    H7      18.475015   19.542451   21.623066 H          1 MOL1         0.1025
      11    C3      20.368913   20.613817   21.669810 C.3        1 MOL1        -0.1243
      12    H8      19.915197   21.593690   21.464938 H          1 MOL1         0.1025
      13    H9      21.329180   20.600347   21.135126 H          1 MOL1         0.1025
      14    C4      20.619062   20.481994   23.189680 C.3        1 MOL1        -0.2258
      15    H10     19.673617   20.486698   23.747567 H          1 MOL1         0.1036
      16    H11     21.226750   21.320488   23.553893 H          1 MOL1         0.1036
      17    H12     21.155198   19.555606   23.431452 H          1 MOL1         0.1036
@<TRIPOS>BOND
    1     1     2    1
    2     1     3    1
    3     1     4    1
    4     1     5    1
    5     5     6    1
    6     5     7    1
    7     5     8    1
    8     8     9    1
    9     8    10    1
   10     8    11    1
   11    11    12    1
   12    11    13    1
   13    11    14    1
   14    14    15    1
   15    14    16    1
   16    14    17    1
@<TRIPOS>SUBSTRUCTURE
       1 MOL1            1 RESIDUE      1      MOL     
@<SCITEGIC>MOL_PROPERTY
VConf Rank
SciTegic.value.IntegerValue
524

@<SCITEGIC>MOL_PROPERTY
Conf_Id
SciTegic.value.IntegerValue
36

@<SCITEGIC>MOL_PROPERTY
Delta U+W
SciTegic.value.DoubleValue
0.275

@<SCITEGIC>MOL_PROPERTY
U+W
SciTegic.value.DoubleValue
-15.590

@<SCITEGIC>MOL_PROPERTY
Grad RMS
SciTegic.value.DoubleValue
0.000000

@<SCITEGIC>MOL_PROPERTY
U
SciTegic.value.DoubleValue
45.174

@<SCITEGIC>MOL_PROPERTY
W
SciTegic.value.DoubleValue
-60.765

@<SCITEGIC>MOL_PROPERTY
W(PB)
SciTegic.value.DoubleValue
-62.518

@<SCITEGIC>MOL_PROPERTY
W(SA)
SciTegic.value.DoubleValue
1.754

@<SCITEGIC>MOL_PROPERTY
Valence
SciTegic.value.DoubleValue
1.161

@<SCITEGIC>MOL_PROPERTY
Coulomb
SciTegic.value.DoubleValue
43.789

@<SCITEGIC>MOL_PROPERTY
VdW
SciTegic.value.DoubleValue
0.224

@<SCITEGIC>MOL_PROPERTY
VdW6
SciTegic.value.DoubleValue
-2.897

@<SCITEGIC>MOL_PROPERTY
VdW12
SciTegic.value.DoubleValue
3.121

@<SCITEGIC>MOL_PROPERTY
Bond
SciTegic.value.DoubleValue
0.100

@<SCITEGIC>MOL_PROPERTY
Angle
SciTegic.value.DoubleValue
0.500

@<SCITEGIC>MOL_PROPERTY
Pdih
SciTegic.value.DoubleValue
0.561

@<SCITEGIC>MOL_PROPERTY
Idih
SciTegic.value.DoubleValue
0.000

@<SCITEGIC>MOL_PROPERTY
Tether
SciTegic.value.DoubleValue
0.000

@<TRIPOS>MOLECULE
guest-1_confgen4.mol2 : confsearch ligand conformer 525
          17          16           1
SMALL
USER_CHARGES
 
@<TRIPOS>ATOM
       1    N1      19.687395   17.371772   22.485798 N.4        1 MOL1        -0.5891
       2    H1      18.797278   17.763284   22.167591 H          1 MOL1         0.3726
       3    H2      19.768298   17.580758   23.485427 H          1 MOL1         0.3726
       4    H3      19.617578   16.352671   22.399889 H          1 MOL1         0.3726
       5    C1      20.858920   17.925422   21.697743 C.3        1 MOL1         0.0314
       6    H4      20.754665   17.614885   20.654670 H          1 MOL1         0.0999
       7    H5      21.763140   17.460433   22.099872 H          1 MOL1         0.0999
       8    C2      21.006220   19.459745   21.773712 C.3        1 MOL1        -0.1308
       9    H6      20.862323   19.800138   22.807712 H          1 MOL1         0.1025
      10    H7      22.044004   19.709684   21.516065 H          1 MOL1         0.1025
      11    C3      20.074969   20.243173   20.813652 C.3        1 MOL1        -0.1243
      12    H8      20.273211   19.938836   19.776299 H          1 MOL1         0.1025
      13    H9      20.335356   21.309348   20.872455 H          1 MOL1         0.1025
      14    C4      18.567458   20.087307   21.116967 C.3        1 MOL1        -0.2258
      15    H10     18.209555   19.080745   20.871172 H          1 MOL1         0.1036
      16    H11     17.982831   20.793484   20.513079 H          1 MOL1         0.1036
      17    H12     18.349998   20.293033   22.173159 H          1 MOL1         0.1036
@<TRIPOS>BOND
    1     1     2    1
    2     1     3    1
    3     1     4    1
    4     1     5    1
    5     5     6    1
    6     5     7    1
    7     5     8    1
    8     8     9    1
    9     8    10    1
   10     8    11    1
   11    11    12    1
   12    11    13    1
   13    11    14    1
   14    14    15    1
   15    14    16    1
   16    14    17    1
@<TRIPOS>SUBSTRUCTURE
       1 MOL1            1 RESIDUE      1      MOL     
@<SCITEGIC>MOL_PROPERTY
VConf Rank
SciTegic.value.IntegerValue
525

@<SCITEGIC>MOL_PROPERTY
Conf_Id
SciTegic.value.IntegerValue
19

@<SCITEGIC>MOL_PROPERTY
Delta U+W
SciTegic.value.DoubleValue
2.662

@<SCITEGIC>MOL_PROPERTY
U+W
SciTegic.value.DoubleValue
-13.203

@<SCITEGIC>MOL_PROPERTY
Grad RMS
SciTegic.value.DoubleValue
0.000000

@<SCITEGIC>MOL_PROPERTY
U
SciTegic.value.DoubleValue
47.423

@<SCITEGIC>MOL_PROPERTY
W
SciTegic.value.DoubleValue
-60.626

@<SCITEGIC>MOL_PROPERTY
W(PB)
SciTegic.value.DoubleValue
-62.328

@<SCITEGIC>MOL_PROPERTY
W(SA)
SciTegic.value.DoubleValue
1.702

@<SCITEGIC>MOL_PROPERTY
Valence
SciTegic.value.DoubleValue
2.414

@<SCITEGIC>MOL_PROPERTY
Coulomb
SciTegic.value.DoubleValue
44.831

@<SCITEGIC>MOL_PROPERTY
VdW
SciTegic.value.DoubleValue
0.178

@<SCITEGIC>MOL_PROPERTY
VdW6
SciTegic.value.DoubleValue
-3.743

@<SCITEGIC>MOL_PROPERTY
VdW12
SciTegic.value.DoubleValue
3.921

@<SCITEGIC>MOL_PROPERTY
Bond
SciTegic.value.DoubleValue
0.138

@<SCITEGIC>MOL_PROPERTY
Angle
SciTegic.value.DoubleValue
0.941

@<SCITEGIC>MOL_PROPERTY
Pdih
SciTegic.value.DoubleValue
1.335

@<SCITEGIC>MOL_PROPERTY
Idih
SciTegic.value.DoubleValue
0.000

@<SCITEGIC>MOL_PROPERTY
Tether
SciTegic.value.DoubleValue
0.000

@<TRIPOS>MOLECULE
guest-1_confgen4.mol2 : confsearch ligand conformer 526
          17          16           1
SMALL
USER_CHARGES
 
@<TRIPOS>ATOM
       1    N1      21.422597   19.844654   22.281512 N.4        1 MOL1        -0.5891
       2    H1      21.821918   20.473108   22.986077 H          1 MOL1         0.3726
       3    H2      22.160475   19.660886   21.595038 H          1 MOL1         0.3726
       4    H3      21.218762   18.957634   22.748942 H          1 MOL1         0.3726
       5    C1      20.185331   20.436361   21.634137 C.3        1 MOL1         0.0314
       6    H4      20.489659   21.373293   21.159712 H          1 MOL1         0.0999
       7    H5      19.461991   20.674366   22.418634 H          1 MOL1         0.0999
       8    C2      19.527029   19.527189   20.575055 C.3        1 MOL1        -0.1308
       9    H6      18.913951   20.162875   19.922457 H          1 MOL1         0.1025
      10    H7      20.296795   19.085561   19.928408 H          1 MOL1         0.1025
      11    C3      18.612138   18.419871   21.157744 C.3        1 MOL1        -0.1243
      12    H8      18.117062   17.904985   20.322410 H          1 MOL1         0.1025
      13    H9      17.808561   18.878597   21.750919 H          1 MOL1         0.1025
      14    C4      19.349869   17.367713   22.016577 C.3        1 MOL1        -0.2258
      15    H10     20.218672   16.957678   21.485347 H          1 MOL1         0.1036
      16    H11     18.679123   16.531423   22.252960 H          1 MOL1         0.1036
      17    H12     19.685279   17.790650   22.970675 H          1 MOL1         0.1036
@<TRIPOS>BOND
    1     1     2    1
    2     1     3    1
    3     1     4    1
    4     1     5    1
    5     5     6    1
    6     5     7    1
    7     5     8    1
    8     8     9    1
    9     8    10    1
   10     8    11    1
   11    11    12    1
   12    11    13    1
   13    11    14    1
   14    14    15    1
   15    14    16    1
   16    14    17    1
@<TRIPOS>SUBSTRUCTURE
       1 MOL1            1 RESIDUE      1      MOL     
@<SCITEGIC>MOL_PROPERTY
VConf Rank
SciTegic.value.IntegerValue
526

@<SCITEGIC>MOL_PROPERTY
Conf_Id
SciTegic.value.IntegerValue
44

@<SCITEGIC>MOL_PROPERTY
Delta U+W
SciTegic.value.DoubleValue
2.712

@<SCITEGIC>MOL_PROPERTY
U+W
SciTegic.value.DoubleValue
-13.153

@<SCITEGIC>MOL_PROPERTY
Grad RMS
SciTegic.value.DoubleValue
0.000000

@<SCITEGIC>MOL_PROPERTY
U
SciTegic.value.DoubleValue
47.423

@<SCITEGIC>MOL_PROPERTY
W
SciTegic.value.DoubleValue
-60.576

@<SCITEGIC>MOL_PROPERTY
W(PB)
SciTegic.value.DoubleValue
-62.262

@<SCITEGIC>MOL_PROPERTY
W(SA)
SciTegic.value.DoubleValue
1.687

@<SCITEGIC>MOL_PROPERTY
Valence
SciTegic.value.DoubleValue
2.414

@<SCITEGIC>MOL_PROPERTY
Coulomb
SciTegic.value.DoubleValue
44.831

@<SCITEGIC>MOL_PROPERTY
VdW
SciTegic.value.DoubleValue
0.178

@<SCITEGIC>MOL_PROPERTY
VdW6
SciTegic.value.DoubleValue
-3.743

@<SCITEGIC>MOL_PROPERTY
VdW12
SciTegic.value.DoubleValue
3.922

@<SCITEGIC>MOL_PROPERTY
Bond
SciTegic.value.DoubleValue
0.138

@<SCITEGIC>MOL_PROPERTY
Angle
SciTegic.value.DoubleValue
0.941

@<SCITEGIC>MOL_PROPERTY
Pdih
SciTegic.value.DoubleValue
1.335

@<SCITEGIC>MOL_PROPERTY
Idih
SciTegic.value.DoubleValue
0.000

@<SCITEGIC>MOL_PROPERTY
Tether
SciTegic.value.DoubleValue
0.000

@<TRIPOS>MOLECULE
guest-1_confgen4.mol2 : confsearch ligand conformer 527
          17          16           1
SMALL
USER_CHARGES
 
@<TRIPOS>ATOM
       1    N1      20.664258   20.183279   23.041395 N.4        1 MOL1        -0.5891
       2    H1      20.715901   20.722346   22.172380 H          1 MOL1         0.3726
       3    H2      21.620535   19.907468   23.283967 H          1 MOL1         0.3726
       4    H3      20.345046   20.825752   23.773515 H          1 MOL1         0.3726
       5    C1      19.746827   18.983501   22.904604 C.3        1 MOL1         0.0314
       6    H4      18.742269   19.348644   22.675824 H          1 MOL1         0.0999
       7    H5      19.710486   18.479853   23.874426 H          1 MOL1         0.0999
       8    C2      20.193660   17.977942   21.823349 C.3        1 MOL1        -0.1308
       9    H6      21.186073   17.586450   22.083351 H          1 MOL1         0.1025
      10    H7      19.511594   17.117538   21.840527 H          1 MOL1         0.1025
      11    C3      20.232836   18.568224   20.391711 C.3        1 MOL1        -0.1243
      12    H8      20.573964   17.788205   19.696653 H          1 MOL1         0.1025
      13    H9      20.979335   19.372076   20.335014 H          1 MOL1         0.1025
      14    C4      18.860184   19.098035   19.917450 C.3        1 MOL1        -0.2258
      15    H10     18.096044   18.311273   19.963968 H          1 MOL1         0.1036
      16    H11     18.919844   19.445489   18.877890 H          1 MOL1         0.1036
      17    H12     18.519786   19.942688   20.529528 H          1 MOL1         0.1036
@<TRIPOS>BOND
    1     1     2    1
    2     1     3    1
    3     1     4    1
    4     1     5    1
    5     5     6    1
    6     5     7    1
    7     5     8    1
    8     8     9    1
    9     8    10    1
   10     8    11    1
   11    11    12    1
   12    11    13    1
   13    11    14    1
   14    14    15    1
   15    14    16    1
   16    14    17    1
@<TRIPOS>SUBSTRUCTURE
       1 MOL1            1 RESIDUE      1      MOL     
@<SCITEGIC>MOL_PROPERTY
VConf Rank
SciTegic.value.IntegerValue
527

@<SCITEGIC>MOL_PROPERTY
Conf_Id
SciTegic.value.IntegerValue
1

@<SCITEGIC>MOL_PROPERTY
Delta U+W
SciTegic.value.DoubleValue
0.685

@<SCITEGIC>MOL_PROPERTY
U+W
SciTegic.value.DoubleValue
-15.179

@<SCITEGIC>MOL_PROPERTY
Grad RMS
SciTegic.value.DoubleValue
0.000000

@<SCITEGIC>MOL_PROPERTY
U
SciTegic.value.DoubleValue
45.697

@<SCITEGIC>MOL_PROPERTY
W
SciTegic.value.DoubleValue
-60.876

@<SCITEGIC>MOL_PROPERTY
W(PB)
SciTegic.value.DoubleValue
-62.586

@<SCITEGIC>MOL_PROPERTY
W(SA)
SciTegic.value.DoubleValue
1.710

@<SCITEGIC>MOL_PROPERTY
Valence
SciTegic.value.DoubleValue
1.263

@<SCITEGIC>MOL_PROPERTY
Coulomb
SciTegic.value.DoubleValue
44.179

@<SCITEGIC>MOL_PROPERTY
VdW
SciTegic.value.DoubleValue
0.255

@<SCITEGIC>MOL_PROPERTY
VdW6
SciTegic.value.DoubleValue
-3.552

@<SCITEGIC>MOL_PROPERTY
VdW12
SciTegic.value.DoubleValue
3.807

@<SCITEGIC>MOL_PROPERTY
Bond
SciTegic.value.DoubleValue
0.125

@<SCITEGIC>MOL_PROPERTY
Angle
SciTegic.value.DoubleValue
0.616

@<SCITEGIC>MOL_PROPERTY
Pdih
SciTegic.value.DoubleValue
0.521

@<SCITEGIC>MOL_PROPERTY
Idih
SciTegic.value.DoubleValue
0.000

@<SCITEGIC>MOL_PROPERTY
Tether
SciTegic.value.DoubleValue
0.000

@<TRIPOS>MOLECULE
guest-1_confgen4.mol2 : confsearch ligand conformer 528
          17          16           1
SMALL
USER_CHARGES
 
@<TRIPOS>ATOM
       1    N1      20.896571   20.642682   20.965556 N.4        1 MOL1        -0.5891
       2    H1      21.712999   20.844158   21.550561 H          1 MOL1         0.3726
       3    H2      20.070843   20.969376   21.475353 H          1 MOL1         0.3726
       4    H3      20.980364   21.225717   20.126678 H          1 MOL1         0.3726
       5    C1      20.797370   19.169216   20.620716 C.3        1 MOL1         0.0314
       6    H4      21.689415   18.900400   20.048412 H          1 MOL1         0.0999
       7    H5      19.926822   19.029650   19.974596 H          1 MOL1         0.0999
       8    C2      20.684009   18.247588   21.852655 C.3        1 MOL1        -0.1308
       9    H6      20.682707   17.203832   21.511518 H          1 MOL1         0.1025
      10    H7      21.581569   18.364821   22.474257 H          1 MOL1         0.1025
      11    C3      19.423666   18.502613   22.716400 C.3        1 MOL1        -0.1243
      12    H8      19.455632   19.515092   23.141276 H          1 MOL1         0.1025
      13    H9      19.436457   17.813958   23.572843 H          1 MOL1         0.1025
      14    C4      18.104290   18.307419   21.934770 C.3        1 MOL1        -0.2258
      15    H10     17.240343   18.433603   22.600083 H          1 MOL1         0.1036
      16    H11     18.048082   17.300730   21.500622 H          1 MOL1         0.1036
      17    H12     18.004848   19.037186   21.121444 H          1 MOL1         0.1036
@<TRIPOS>BOND
    1     1     2    1
    2     1     3    1
    3     1     4    1
    4     1     5    1
    5     5     6    1
    6     5     7    1
    7     5     8    1
    8     8     9    1
    9     8    10    1
   10     8    11    1
   11    11    12    1
   12    11    13    1
   13    11    14    1
   14    14    15    1
   15    14    16    1
   16    14    17    1
@<TRIPOS>SUBSTRUCTURE
       1 MOL1            1 RESIDUE      1      MOL     
@<SCITEGIC>MOL_PROPERTY
VConf Rank
SciTegic.value.IntegerValue
528

@<SCITEGIC>MOL_PROPERTY
Conf_Id
SciTegic.value.IntegerValue
43

@<SCITEGIC>MOL_PROPERTY
Delta U+W
SciTegic.value.DoubleValue
0.642

@<SCITEGIC>MOL_PROPERTY
U+W
SciTegic.value.DoubleValue
-15.222

@<SCITEGIC>MOL_PROPERTY
Grad RMS
SciTegic.value.DoubleValue
0.000000

@<SCITEGIC>MOL_PROPERTY
U
SciTegic.value.DoubleValue
45.697

@<SCITEGIC>MOL_PROPERTY
W
SciTegic.value.DoubleValue
-60.919

@<SCITEGIC>MOL_PROPERTY
W(PB)
SciTegic.value.DoubleValue
-62.631

@<SCITEGIC>MOL_PROPERTY
W(SA)
SciTegic.value.DoubleValue
1.712

@<SCITEGIC>MOL_PROPERTY
Valence
SciTegic.value.DoubleValue
1.262

@<SCITEGIC>MOL_PROPERTY
Coulomb
SciTegic.value.DoubleValue
44.179

@<SCITEGIC>MOL_PROPERTY
VdW
SciTegic.value.DoubleValue
0.255

@<SCITEGIC>MOL_PROPERTY
VdW6
SciTegic.value.DoubleValue
-3.552

@<SCITEGIC>MOL_PROPERTY
VdW12
SciTegic.value.DoubleValue
3.807

@<SCITEGIC>MOL_PROPERTY
Bond
SciTegic.value.DoubleValue
0.125

@<SCITEGIC>MOL_PROPERTY
Angle
SciTegic.value.DoubleValue
0.616

@<SCITEGIC>MOL_PROPERTY
Pdih
SciTegic.value.DoubleValue
0.521

@<SCITEGIC>MOL_PROPERTY
Idih
SciTegic.value.DoubleValue
0.000

@<SCITEGIC>MOL_PROPERTY
Tether
SciTegic.value.DoubleValue
0.000

@<TRIPOS>MOLECULE
guest-1_confgen4.mol2 : confsearch ligand conformer 529
          17          16           1
SMALL
USER_CHARGES
 
@<TRIPOS>ATOM
       1    N1      21.951261   19.665245   20.104694 N.4        1 MOL1        -0.5891
       2    H1      22.572400   20.008997   20.843421 H          1 MOL1         0.3726
       3    H2      21.535511   20.486605   19.655009 H          1 MOL1         0.3726
       4    H3      22.546887   19.213270   19.403369 H          1 MOL1         0.3726
       5    C1      20.897461   18.718458   20.643633 C.3        1 MOL1         0.0314
       6    H4      21.409447   17.855926   21.078871 H          1 MOL1         0.0999
       7    H5      20.294478   18.369471   19.800933 H          1 MOL1         0.0999
       8    C2      19.984023   19.365525   21.700609 C.3        1 MOL1        -0.1308
       9    H6      20.594582   19.728571   22.538108 H          1 MOL1         0.1025
      10    H7      19.483341   20.240250   21.264531 H          1 MOL1         0.1025
      11    C3      18.926412   18.368377   22.222795 C.3        1 MOL1        -0.1243
      12    H8      19.426949   17.491029   22.656442 H          1 MOL1         0.1025
      13    H9      18.317018   18.002139   21.384443 H          1 MOL1         0.1025
      14    C4      18.006411   19.010465   23.283585 C.3        1 MOL1        -0.2258
      15    H10     17.262907   18.286487   23.641505 H          1 MOL1         0.1036
      16    H11     17.465304   19.870961   22.868910 H          1 MOL1         0.1036
      17    H12     18.584015   19.355871   24.150923 H          1 MOL1         0.1036
@<TRIPOS>BOND
    1     1     2    1
    2     1     3    1
    3     1     4    1
    4     1     5    1
    5     5     6    1
    6     5     7    1
    7     5     8    1
    8     8     9    1
    9     8    10    1
   10     8    11    1
   11    11    12    1
   12    11    13    1
   13    11    14    1
   14    14    15    1
   15    14    16    1
   16    14    17    1
@<TRIPOS>SUBSTRUCTURE
       1 MOL1            1 RESIDUE      1      MOL     
@<SCITEGIC>MOL_PROPERTY
VConf Rank
SciTegic.value.IntegerValue
529

@<SCITEGIC>MOL_PROPERTY
Conf_Id
SciTegic.value.IntegerValue
7

@<SCITEGIC>MOL_PROPERTY
Delta U+W
SciTegic.value.DoubleValue
0.000

@<SCITEGIC>MOL_PROPERTY
U+W
SciTegic.value.DoubleValue
-15.865

@<SCITEGIC>MOL_PROPERTY
Grad RMS
SciTegic.value.DoubleValue
0.000000

@<SCITEGIC>MOL_PROPERTY
U
SciTegic.value.DoubleValue
44.664

@<SCITEGIC>MOL_PROPERTY
W
SciTegic.value.DoubleValue
-60.529

@<SCITEGIC>MOL_PROPERTY
W(PB)
SciTegic.value.DoubleValue
-62.309

@<SCITEGIC>MOL_PROPERTY
W(SA)
SciTegic.value.DoubleValue
1.780

@<SCITEGIC>MOL_PROPERTY
Valence
SciTegic.value.DoubleValue
0.872

@<SCITEGIC>MOL_PROPERTY
Coulomb
SciTegic.value.DoubleValue
43.648

@<SCITEGIC>MOL_PROPERTY
VdW
SciTegic.value.DoubleValue
0.144

@<SCITEGIC>MOL_PROPERTY
VdW6
SciTegic.value.DoubleValue
-2.370

@<SCITEGIC>MOL_PROPERTY
VdW12
SciTegic.value.DoubleValue
2.515

@<SCITEGIC>MOL_PROPERTY
Bond
SciTegic.value.DoubleValue
0.080

@<SCITEGIC>MOL_PROPERTY
Angle
SciTegic.value.DoubleValue
0.376

@<SCITEGIC>MOL_PROPERTY
Pdih
SciTegic.value.DoubleValue
0.416

@<SCITEGIC>MOL_PROPERTY
Idih
SciTegic.value.DoubleValue
0.000

@<SCITEGIC>MOL_PROPERTY
Tether
SciTegic.value.DoubleValue
0.000

@<TRIPOS>MOLECULE
guest-1_confgen4.mol2 : confsearch ligand conformer 530
          17          16           1
SMALL
USER_CHARGES
 
@<TRIPOS>ATOM
       1    N1      19.112494   17.099916   20.535415 N.4        1 MOL1        -0.5891
       2    H1      19.830229   16.372045   20.604029 H          1 MOL1         0.3726
       3    H2      19.128311   17.447918   19.571936 H          1 MOL1         0.3726
       4    H3      18.207565   16.637079   20.668565 H          1 MOL1         0.3726
       5    C1      19.331562   18.210241   21.543653 C.3        1 MOL1         0.0314
       6    H4      19.272137   17.774371   22.544600 H          1 MOL1         0.0999
       7    H5      18.515743   18.929411   21.433779 H          1 MOL1         0.0999
       8    C2      20.683953   18.928100   21.371384 C.3        1 MOL1        -0.1308
       9    H6      21.494470   18.190717   21.443541 H          1 MOL1         0.1025
      10    H7      20.744305   19.364435   20.365473 H          1 MOL1         0.1025
      11    C3      20.912321   20.032147   22.430126 C.3        1 MOL1        -0.1243
      12    H8      21.922117   20.446591   22.301553 H          1 MOL1         0.1025
      13    H9      20.885365   19.591280   23.436651 H          1 MOL1         0.1025
      14    C4      19.880849   21.180011   22.338310 C.3        1 MOL1        -0.2258
      15    H10     19.883301   21.634392   21.338982 H          1 MOL1         0.1036
      16    H11     20.116543   21.968314   23.064969 H          1 MOL1         0.1036
      17    H12     18.864117   20.826805   22.551834 H          1 MOL1         0.1036
@<TRIPOS>BOND
    1     1     2    1
    2     1     3    1
    3     1     4    1
    4     1     5    1
    5     5     6    1
    6     5     7    1
    7     5     8    1
    8     8     9    1
    9     8    10    1
   10     8    11    1
   11    11    12    1
   12    11    13    1
   13    11    14    1
   14    14    15    1
   15    14    16    1
   16    14    17    1
@<TRIPOS>SUBSTRUCTURE
       1 MOL1            1 RESIDUE      1      MOL     
@<SCITEGIC>MOL_PROPERTY
VConf Rank
SciTegic.value.IntegerValue
530

@<SCITEGIC>MOL_PROPERTY
Conf_Id
SciTegic.value.IntegerValue
36

@<SCITEGIC>MOL_PROPERTY
Delta U+W
SciTegic.value.DoubleValue
0.275

@<SCITEGIC>MOL_PROPERTY
U+W
SciTegic.value.DoubleValue
-15.590

@<SCITEGIC>MOL_PROPERTY
Grad RMS
SciTegic.value.DoubleValue
0.000000

@<SCITEGIC>MOL_PROPERTY
U
SciTegic.value.DoubleValue
45.174

@<SCITEGIC>MOL_PROPERTY
W
SciTegic.value.DoubleValue
-60.765

@<SCITEGIC>MOL_PROPERTY
W(PB)
SciTegic.value.DoubleValue
-62.518

@<SCITEGIC>MOL_PROPERTY
W(SA)
SciTegic.value.DoubleValue
1.754

@<SCITEGIC>MOL_PROPERTY
Valence
SciTegic.value.DoubleValue
1.161

@<SCITEGIC>MOL_PROPERTY
Coulomb
SciTegic.value.DoubleValue
43.789

@<SCITEGIC>MOL_PROPERTY
VdW
SciTegic.value.DoubleValue
0.224

@<SCITEGIC>MOL_PROPERTY
VdW6
SciTegic.value.DoubleValue
-2.897

@<SCITEGIC>MOL_PROPERTY
VdW12
SciTegic.value.DoubleValue
3.121

@<SCITEGIC>MOL_PROPERTY
Bond
SciTegic.value.DoubleValue
0.100

@<SCITEGIC>MOL_PROPERTY
Angle
SciTegic.value.DoubleValue
0.500

@<SCITEGIC>MOL_PROPERTY
Pdih
SciTegic.value.DoubleValue
0.561

@<SCITEGIC>MOL_PROPERTY
Idih
SciTegic.value.DoubleValue
0.000

@<SCITEGIC>MOL_PROPERTY
Tether
SciTegic.value.DoubleValue
0.000

@<TRIPOS>MOLECULE
guest-1_confgen4.mol2 : confsearch ligand conformer 531
          17          16           1
SMALL
USER_CHARGES
 
@<TRIPOS>ATOM
       1    N1      19.847132   20.824740   21.335625 N.4        1 MOL1        -0.5891
       2    H1      20.614182   20.578326   21.966306 H          1 MOL1         0.3726
       3    H2      19.072799   21.156883   21.918350 H          1 MOL1         0.3726
       4    H3      20.161133   21.623482   20.775056 H          1 MOL1         0.3726
       5    C1      19.435427   19.652338   20.466141 C.3        1 MOL1         0.0314
       6    H4      20.276224   19.385908   19.820092 H          1 MOL1         0.0999
       7    H5      18.616624   19.998384   19.829470 H          1 MOL1         0.0999
       8    C2      18.968760   18.410631   21.254810 C.3        1 MOL1        -0.1308
       9    H6      18.304129   18.714217   22.074462 H          1 MOL1         0.1025
      10    H7      18.355561   17.797175   20.581381 H          1 MOL1         0.1025
      11    C3      20.118733   17.522125   21.794090 C.3        1 MOL1        -0.1243
      12    H8      20.739757   17.173121   20.957103 H          1 MOL1         0.1025
      13    H9      19.678255   16.620349   22.242163 H          1 MOL1         0.1025
      14    C4      21.015379   18.208378   22.849536 C.3        1 MOL1        -0.2258
      15    H10     21.639165   18.990042   22.400573 H          1 MOL1         0.1036
      16    H11     21.694679   17.476427   23.305557 H          1 MOL1         0.1036
      17    H12     20.415259   18.652190   23.654546 H          1 MOL1         0.1036
@<TRIPOS>BOND
    1     1     2    1
    2     1     3    1
    3     1     4    1
    4     1     5    1
    5     5     6    1
    6     5     7    1
    7     5     8    1
    8     8     9    1
    9     8    10    1
   10     8    11    1
   11    11    12    1
   12    11    13    1
   13    11    14    1
   14    14    15    1
   15    14    16    1
   16    14    17    1
@<TRIPOS>SUBSTRUCTURE
       1 MOL1            1 RESIDUE      1      MOL     
@<SCITEGIC>MOL_PROPERTY
VConf Rank
SciTegic.value.IntegerValue
531

@<SCITEGIC>MOL_PROPERTY
Conf_Id
SciTegic.value.IntegerValue
19

@<SCITEGIC>MOL_PROPERTY
Delta U+W
SciTegic.value.DoubleValue
2.662

@<SCITEGIC>MOL_PROPERTY
U+W
SciTegic.value.DoubleValue
-13.203

@<SCITEGIC>MOL_PROPERTY
Grad RMS
SciTegic.value.DoubleValue
0.000000

@<SCITEGIC>MOL_PROPERTY
U
SciTegic.value.DoubleValue
47.423

@<SCITEGIC>MOL_PROPERTY
W
SciTegic.value.DoubleValue
-60.626

@<SCITEGIC>MOL_PROPERTY
W(PB)
SciTegic.value.DoubleValue
-62.328

@<SCITEGIC>MOL_PROPERTY
W(SA)
SciTegic.value.DoubleValue
1.702

@<SCITEGIC>MOL_PROPERTY
Valence
SciTegic.value.DoubleValue
2.414

@<SCITEGIC>MOL_PROPERTY
Coulomb
SciTegic.value.DoubleValue
44.831

@<SCITEGIC>MOL_PROPERTY
VdW
SciTegic.value.DoubleValue
0.178

@<SCITEGIC>MOL_PROPERTY
VdW6
SciTegic.value.DoubleValue
-3.743

@<SCITEGIC>MOL_PROPERTY
VdW12
SciTegic.value.DoubleValue
3.921

@<SCITEGIC>MOL_PROPERTY
Bond
SciTegic.value.DoubleValue
0.138

@<SCITEGIC>MOL_PROPERTY
Angle
SciTegic.value.DoubleValue
0.941

@<SCITEGIC>MOL_PROPERTY
Pdih
SciTegic.value.DoubleValue
1.335

@<SCITEGIC>MOL_PROPERTY
Idih
SciTegic.value.DoubleValue
0.000

@<SCITEGIC>MOL_PROPERTY
Tether
SciTegic.value.DoubleValue
0.000

@<TRIPOS>MOLECULE
guest-1_confgen4.mol2 : confsearch ligand conformer 532
          17          16           1
SMALL
USER_CHARGES
 
@<TRIPOS>ATOM
       1    N1      20.260979   19.571054   23.347035 N.4        1 MOL1        -0.5891
       2    H1      20.885676   19.460573   24.152250 H          1 MOL1         0.3726
       3    H2      19.439534   20.086701   23.676907 H          1 MOL1         0.3726
       4    H3      20.741780   20.171005   22.671955 H          1 MOL1         0.3726
       5    C1      19.880851   18.234118   22.740287 C.3        1 MOL1         0.0314
       6    H4      19.374447   17.660779   23.521552 H          1 MOL1         0.0999
       7    H5      20.796606   17.701428   22.470220 H          1 MOL1         0.0999
       8    C2      18.953919   18.336053   21.510646 C.3        1 MOL1        -0.1308
       9    H6      18.447004   17.369158   21.392332 H          1 MOL1         0.1025
      10    H7      18.160183   19.071177   21.698542 H          1 MOL1         0.1025
      11    C3      19.682960   18.657715   20.181083 C.3        1 MOL1        -0.1243
      12    H8      18.951096   18.602315   19.362978 H          1 MOL1         0.1025
      13    H9      20.431248   17.880190   19.972418 H          1 MOL1         0.1025
      14    C4      20.359390   20.046915   20.143052 C.3        1 MOL1        -0.2258
      15    H10     19.659984   20.839121   20.440360 H          1 MOL1         0.1036
      16    H11     20.706338   20.273480   19.126464 H          1 MOL1         0.1036
      17    H12     21.237217   20.085063   20.798524 H          1 MOL1         0.1036
@<TRIPOS>BOND
    1     1     2    1
    2     1     3    1
    3     1     4    1
    4     1     5    1
    5     5     6    1
    6     5     7    1
    7     5     8    1
    8     8     9    1
    9     8    10    1
   10     8    11    1
   11    11    12    1
   12    11    13    1
   13    11    14    1
   14    14    15    1
   15    14    16    1
   16    14    17    1
@<TRIPOS>SUBSTRUCTURE
       1 MOL1            1 RESIDUE      1      MOL     
@<SCITEGIC>MOL_PROPERTY
VConf Rank
SciTegic.value.IntegerValue
532

@<SCITEGIC>MOL_PROPERTY
Conf_Id
SciTegic.value.IntegerValue
44

@<SCITEGIC>MOL_PROPERTY
Delta U+W
SciTegic.value.DoubleValue
2.712

@<SCITEGIC>MOL_PROPERTY
U+W
SciTegic.value.DoubleValue
-13.153

@<SCITEGIC>MOL_PROPERTY
Grad RMS
SciTegic.value.DoubleValue
0.000000

@<SCITEGIC>MOL_PROPERTY
U
SciTegic.value.DoubleValue
47.423

@<SCITEGIC>MOL_PROPERTY
W
SciTegic.value.DoubleValue
-60.576

@<SCITEGIC>MOL_PROPERTY
W(PB)
SciTegic.value.DoubleValue
-62.262

@<SCITEGIC>MOL_PROPERTY
W(SA)
SciTegic.value.DoubleValue
1.687

@<SCITEGIC>MOL_PROPERTY
Valence
SciTegic.value.DoubleValue
2.414

@<SCITEGIC>MOL_PROPERTY
Coulomb
SciTegic.value.DoubleValue
44.831

@<SCITEGIC>MOL_PROPERTY
VdW
SciTegic.value.DoubleValue
0.178

@<SCITEGIC>MOL_PROPERTY
VdW6
SciTegic.value.DoubleValue
-3.743

@<SCITEGIC>MOL_PROPERTY
VdW12
SciTegic.value.DoubleValue
3.922

@<SCITEGIC>MOL_PROPERTY
Bond
SciTegic.value.DoubleValue
0.138

@<SCITEGIC>MOL_PROPERTY
Angle
SciTegic.value.DoubleValue
0.941

@<SCITEGIC>MOL_PROPERTY
Pdih
SciTegic.value.DoubleValue
1.335

@<SCITEGIC>MOL_PROPERTY
Idih
SciTegic.value.DoubleValue
0.000

@<SCITEGIC>MOL_PROPERTY
Tether
SciTegic.value.DoubleValue
0.000

@<TRIPOS>MOLECULE
guest-1_confgen4.mol2 : confsearch ligand conformer 533
          17          16           1
SMALL
USER_CHARGES
 
@<TRIPOS>ATOM
       1    N1      18.437327   18.116942   22.548612 N.4        1 MOL1        -0.5891
       2    H1      18.986303   17.394511   22.074097 H          1 MOL1         0.3726
       3    H2      17.551969   18.206679   22.041198 H          1 MOL1         0.3726
       4    H3      18.210754   17.756428   23.481008 H          1 MOL1         0.3726
       5    C1      19.184788   19.434557   22.619671 C.3        1 MOL1         0.0314
       6    H4      20.099648   19.275196   23.196247 H          1 MOL1         0.0999
       7    H5      18.558724   20.143340   23.168497 H          1 MOL1         0.0999
       8    C2      19.536387   20.026319   21.239049 C.3        1 MOL1        -0.1308
       9    H6      18.609345   20.220662   20.683556 H          1 MOL1         0.1025
      10    H7      20.014466   21.003702   21.387262 H          1 MOL1         0.1025
      11    C3      20.467397   19.127976   20.387136 C.3        1 MOL1        -0.1243
      12    H8      20.649427   19.621649   19.422224 H          1 MOL1         0.1025
      13    H9      19.965531   18.179493   20.152261 H          1 MOL1         0.1025
      14    C4      21.824986   18.843587   21.069686 C.3        1 MOL1        -0.2258
      15    H10     22.347265   19.777767   21.313815 H          1 MOL1         0.1036
      16    H11     22.475447   18.260442   20.404998 H          1 MOL1         0.1036
      17    H12     21.698878   18.269513   21.996230 H          1 MOL1         0.1036
@<TRIPOS>BOND
    1     1     2    1
    2     1     3    1
    3     1     4    1
    4     1     5    1
    5     5     6    1
    6     5     7    1
    7     5     8    1
    8     8     9    1
    9     8    10    1
   10     8    11    1
   11    11    12    1
   12    11    13    1
   13    11    14    1
   14    14    15    1
   15    14    16    1
   16    14    17    1
@<TRIPOS>SUBSTRUCTURE
       1 MOL1            1 RESIDUE      1      MOL     
@<SCITEGIC>MOL_PROPERTY
VConf Rank
SciTegic.value.IntegerValue
533

@<SCITEGIC>MOL_PROPERTY
Conf_Id
SciTegic.value.IntegerValue
1

@<SCITEGIC>MOL_PROPERTY
Delta U+W
SciTegic.value.DoubleValue
0.685

@<SCITEGIC>MOL_PROPERTY
U+W
SciTegic.value.DoubleValue
-15.179

@<SCITEGIC>MOL_PROPERTY
Grad RMS
SciTegic.value.DoubleValue
0.000000

@<SCITEGIC>MOL_PROPERTY
U
SciTegic.value.DoubleValue
45.697

@<SCITEGIC>MOL_PROPERTY
W
SciTegic.value.DoubleValue
-60.876

@<SCITEGIC>MOL_PROPERTY
W(PB)
SciTegic.value.DoubleValue
-62.586

@<SCITEGIC>MOL_PROPERTY
W(SA)
SciTegic.value.DoubleValue
1.710

@<SCITEGIC>MOL_PROPERTY
Valence
SciTegic.value.DoubleValue
1.263

@<SCITEGIC>MOL_PROPERTY
Coulomb
SciTegic.value.DoubleValue
44.179

@<SCITEGIC>MOL_PROPERTY
VdW
SciTegic.value.DoubleValue
0.255

@<SCITEGIC>MOL_PROPERTY
VdW6
SciTegic.value.DoubleValue
-3.552

@<SCITEGIC>MOL_PROPERTY
VdW12
SciTegic.value.DoubleValue
3.807

@<SCITEGIC>MOL_PROPERTY
Bond
SciTegic.value.DoubleValue
0.125

@<SCITEGIC>MOL_PROPERTY
Angle
SciTegic.value.DoubleValue
0.616

@<SCITEGIC>MOL_PROPERTY
Pdih
SciTegic.value.DoubleValue
0.521

@<SCITEGIC>MOL_PROPERTY
Idih
SciTegic.value.DoubleValue
0.000

@<SCITEGIC>MOL_PROPERTY
Tether
SciTegic.value.DoubleValue
0.000

@<TRIPOS>MOLECULE
guest-1_confgen4.mol2 : confsearch ligand conformer 534
          17          16           1
SMALL
USER_CHARGES
 
@<TRIPOS>ATOM
       1    N1      21.285215   20.414773   22.022450 N.4        1 MOL1        -0.5891
       2    H1      22.224342   20.118306   21.740448 H          1 MOL1         0.3726
       3    H2      21.065319   19.931405   22.897921 H          1 MOL1         0.3726
       4    H3      21.341370   21.415103   22.238907 H          1 MOL1         0.3726
       5    C1      20.254578   20.127253   20.947751 C.3        1 MOL1         0.0314
       6    H4      20.530585   20.701954   20.059452 H          1 MOL1         0.0999
       7    H5      19.286405   20.493098   21.299324 H          1 MOL1         0.0999
       8    C2      20.142684   18.634273   20.575713 C.3        1 MOL1        -0.1308
       9    H6      19.424828   18.530596   19.751252 H          1 MOL1         0.1025
      10    H7      21.108462   18.286720   20.185550 H          1 MOL1         0.1025
      11    C3      19.704808   17.723536   21.749758 C.3        1 MOL1        -0.1243
      12    H8      20.460587   17.745173   22.546616 H          1 MOL1         0.1025
      13    H9      19.667160   16.683708   21.395860 H          1 MOL1         0.1025
      14    C4      18.324428   18.106468   22.330887 C.3        1 MOL1        -0.2258
      15    H10     18.025972   17.397094   23.113625 H          1 MOL1         0.1036
      16    H11     17.550522   18.090973   21.552493 H          1 MOL1         0.1036
      17    H12     18.338722   19.107608   22.779734 H          1 MOL1         0.1036
@<TRIPOS>BOND
    1     1     2    1
    2     1     3    1
    3     1     4    1
    4     1     5    1
    5     5     6    1
    6     5     7    1
    7     5     8    1
    8     8     9    1
    9     8    10    1
   10     8    11    1
   11    11    12    1
   12    11    13    1
   13    11    14    1
   14    14    15    1
   15    14    16    1
   16    14    17    1
@<TRIPOS>SUBSTRUCTURE
       1 MOL1            1 RESIDUE      1      MOL     
@<SCITEGIC>MOL_PROPERTY
VConf Rank
SciTegic.value.IntegerValue
534

@<SCITEGIC>MOL_PROPERTY
Conf_Id
SciTegic.value.IntegerValue
43

@<SCITEGIC>MOL_PROPERTY
Delta U+W
SciTegic.value.DoubleValue
0.642

@<SCITEGIC>MOL_PROPERTY
U+W
SciTegic.value.DoubleValue
-15.222

@<SCITEGIC>MOL_PROPERTY
Grad RMS
SciTegic.value.DoubleValue
0.000000

@<SCITEGIC>MOL_PROPERTY
U
SciTegic.value.DoubleValue
45.697

@<SCITEGIC>MOL_PROPERTY
W
SciTegic.value.DoubleValue
-60.919

@<SCITEGIC>MOL_PROPERTY
W(PB)
SciTegic.value.DoubleValue
-62.631

@<SCITEGIC>MOL_PROPERTY
W(SA)
SciTegic.value.DoubleValue
1.712

@<SCITEGIC>MOL_PROPERTY
Valence
SciTegic.value.DoubleValue
1.262

@<SCITEGIC>MOL_PROPERTY
Coulomb
SciTegic.value.DoubleValue
44.179

@<SCITEGIC>MOL_PROPERTY
VdW
SciTegic.value.DoubleValue
0.255

@<SCITEGIC>MOL_PROPERTY
VdW6
SciTegic.value.DoubleValue
-3.552

@<SCITEGIC>MOL_PROPERTY
VdW12
SciTegic.value.DoubleValue
3.807

@<SCITEGIC>MOL_PROPERTY
Bond
SciTegic.value.DoubleValue
0.125

@<SCITEGIC>MOL_PROPERTY
Angle
SciTegic.value.DoubleValue
0.616

@<SCITEGIC>MOL_PROPERTY
Pdih
SciTegic.value.DoubleValue
0.521

@<SCITEGIC>MOL_PROPERTY
Idih
SciTegic.value.DoubleValue
0.000

@<SCITEGIC>MOL_PROPERTY
Tether
SciTegic.value.DoubleValue
0.000

@<TRIPOS>MOLECULE
guest-1_confgen4.mol2 : confsearch ligand conformer 535
          17          16           1
SMALL
USER_CHARGES
 
@<TRIPOS>ATOM
       1    N1      21.232584   21.286850   21.673049 N.4        1 MOL1        -0.5891
       2    H1      22.164047   20.912170   21.468873 H          1 MOL1         0.3726
       3    H2      21.183653   21.435736   22.685539 H          1 MOL1         0.3726
       4    H3      21.182955   22.212269   21.234821 H          1 MOL1         0.3726
       5    C1      20.130979   20.369979   21.179927 C.3        1 MOL1         0.0314
       6    H4      20.225835   20.281880   20.094218 H          1 MOL1         0.0999
       7    H5      19.171586   20.844905   21.402488 H          1 MOL1         0.0999
       8    C2      20.175695   18.969821   21.818534 C.3        1 MOL1        -0.1308
       9    H6      21.146359   18.502219   21.606044 H          1 MOL1         0.1025
      10    H7      20.095589   19.063294   22.909788 H          1 MOL1         0.1025
      11    C3      19.038201   18.068855   21.289490 C.3        1 MOL1        -0.1243
      12    H8      19.115895   17.977604   20.196804 H          1 MOL1         0.1025
      13    H9      18.066410   18.537947   21.499016 H          1 MOL1         0.1025
      14    C4      19.076715   16.662529   21.925666 C.3        1 MOL1        -0.2258
      15    H10     18.261423   16.038576   21.537039 H          1 MOL1         0.1036
      16    H11     18.966341   16.718875   23.016468 H          1 MOL1         0.1036
      17    H12     20.024142   16.154137   21.704021 H          1 MOL1         0.1036
@<TRIPOS>BOND
    1     1     2    1
    2     1     3    1
    3     1     4    1
    4     1     5    1
    5     5     6    1
    6     5     7    1
    7     5     8    1
    8     8     9    1
    9     8    10    1
   10     8    11    1
   11    11    12    1
   12    11    13    1
   13    11    14    1
   14    14    15    1
   15    14    16    1
   16    14    17    1
@<TRIPOS>SUBSTRUCTURE
       1 MOL1            1 RESIDUE      1      MOL     
@<SCITEGIC>MOL_PROPERTY
VConf Rank
SciTegic.value.IntegerValue
535

@<SCITEGIC>MOL_PROPERTY
Conf_Id
SciTegic.value.IntegerValue
7

@<SCITEGIC>MOL_PROPERTY
Delta U+W
SciTegic.value.DoubleValue
0.000

@<SCITEGIC>MOL_PROPERTY
U+W
SciTegic.value.DoubleValue
-15.865

@<SCITEGIC>MOL_PROPERTY
Grad RMS
SciTegic.value.DoubleValue
0.000000

@<SCITEGIC>MOL_PROPERTY
U
SciTegic.value.DoubleValue
44.664

@<SCITEGIC>MOL_PROPERTY
W
SciTegic.value.DoubleValue
-60.529

@<SCITEGIC>MOL_PROPERTY
W(PB)
SciTegic.value.DoubleValue
-62.309

@<SCITEGIC>MOL_PROPERTY
W(SA)
SciTegic.value.DoubleValue
1.780

@<SCITEGIC>MOL_PROPERTY
Valence
SciTegic.value.DoubleValue
0.872

@<SCITEGIC>MOL_PROPERTY
Coulomb
SciTegic.value.DoubleValue
43.648

@<SCITEGIC>MOL_PROPERTY
VdW
SciTegic.value.DoubleValue
0.144

@<SCITEGIC>MOL_PROPERTY
VdW6
SciTegic.value.DoubleValue
-2.370

@<SCITEGIC>MOL_PROPERTY
VdW12
SciTegic.value.DoubleValue
2.515

@<SCITEGIC>MOL_PROPERTY
Bond
SciTegic.value.DoubleValue
0.080

@<SCITEGIC>MOL_PROPERTY
Angle
SciTegic.value.DoubleValue
0.376

@<SCITEGIC>MOL_PROPERTY
Pdih
SciTegic.value.DoubleValue
0.416

@<SCITEGIC>MOL_PROPERTY
Idih
SciTegic.value.DoubleValue
0.000

@<SCITEGIC>MOL_PROPERTY
Tether
SciTegic.value.DoubleValue
0.000

@<TRIPOS>MOLECULE
guest-1_confgen4.mol2 : confsearch ligand conformer 536
          17          16           1
SMALL
USER_CHARGES
 
@<TRIPOS>ATOM
       1    N1      19.943141   17.359123   23.296688 N.4        1 MOL1        -0.5891
       2    H1      18.992365   17.246731   23.661436 H          1 MOL1         0.3726
       3    H2      20.482066   17.858426   24.010763 H          1 MOL1         0.3726
       4    H3      20.345841   16.419176   23.224742 H          1 MOL1         0.3726
       5    C1      19.958567   18.082491   21.964827 C.3        1 MOL1         0.0314
       6    H4      19.393287   17.481600   21.247333 H          1 MOL1         0.0999
       7    H5      20.995841   18.137212   21.624378 H          1 MOL1         0.0999
       8    C2      19.359914   19.500340   22.037476 C.3        1 MOL1        -0.1308
       9    H6      18.331865   19.437747   22.418363 H          1 MOL1         0.1025
      10    H7      19.926639   20.103340   22.759350 H          1 MOL1         0.1025
      11    C3      19.345502   20.212759   20.664793 C.3        1 MOL1        -0.1243
      12    H8      18.835848   21.180791   20.770384 H          1 MOL1         0.1025
      13    H9      18.750647   19.627016   19.949786 H          1 MOL1         0.1025
      14    C4      20.761725   20.448569   20.091503 C.3        1 MOL1        -0.2258
      15    H10     21.379520   21.027421   20.790348 H          1 MOL1         0.1036
      16    H11     20.707150   21.009438   19.149455 H          1 MOL1         0.1036
      17    H12     21.275464   19.501593   19.883174 H          1 MOL1         0.1036
@<TRIPOS>BOND
    1     1     2    1
    2     1     3    1
    3     1     4    1
    4     1     5    1
    5     5     6    1
    6     5     7    1
    7     5     8    1
    8     8     9    1
    9     8    10    1
   10     8    11    1
   11    11    12    1
   12    11    13    1
   13    11    14    1
   14    14    15    1
   15    14    16    1
   16    14    17    1
@<TRIPOS>SUBSTRUCTURE
       1 MOL1            1 RESIDUE      1      MOL     
@<SCITEGIC>MOL_PROPERTY
VConf Rank
SciTegic.value.IntegerValue
536

@<SCITEGIC>MOL_PROPERTY
Conf_Id
SciTegic.value.IntegerValue
36

@<SCITEGIC>MOL_PROPERTY
Delta U+W
SciTegic.value.DoubleValue
0.275

@<SCITEGIC>MOL_PROPERTY
U+W
SciTegic.value.DoubleValue
-15.590

@<SCITEGIC>MOL_PROPERTY
Grad RMS
SciTegic.value.DoubleValue
0.000000

@<SCITEGIC>MOL_PROPERTY
U
SciTegic.value.DoubleValue
45.174

@<SCITEGIC>MOL_PROPERTY
W
SciTegic.value.DoubleValue
-60.765

@<SCITEGIC>MOL_PROPERTY
W(PB)
SciTegic.value.DoubleValue
-62.518

@<SCITEGIC>MOL_PROPERTY
W(SA)
SciTegic.value.DoubleValue
1.754

@<SCITEGIC>MOL_PROPERTY
Valence
SciTegic.value.DoubleValue
1.161

@<SCITEGIC>MOL_PROPERTY
Coulomb
SciTegic.value.DoubleValue
43.789

@<SCITEGIC>MOL_PROPERTY
VdW
SciTegic.value.DoubleValue
0.224

@<SCITEGIC>MOL_PROPERTY
VdW6
SciTegic.value.DoubleValue
-2.897

@<SCITEGIC>MOL_PROPERTY
VdW12
SciTegic.value.DoubleValue
3.121

@<SCITEGIC>MOL_PROPERTY
Bond
SciTegic.value.DoubleValue
0.100

@<SCITEGIC>MOL_PROPERTY
Angle
SciTegic.value.DoubleValue
0.500

@<SCITEGIC>MOL_PROPERTY
Pdih
SciTegic.value.DoubleValue
0.561

@<SCITEGIC>MOL_PROPERTY
Idih
SciTegic.value.DoubleValue
0.000

@<SCITEGIC>MOL_PROPERTY
Tether
SciTegic.value.DoubleValue
0.000

@<TRIPOS>MOLECULE
guest-1_confgen4.mol2 : confsearch ligand conformer 537
          17          16           1
SMALL
USER_CHARGES
 
@<TRIPOS>ATOM
       1    N1      21.458466   19.721917   20.823712 N.4        1 MOL1        -0.5891
       2    H1      21.640734   18.779299   21.177400 H          1 MOL1         0.3726
       3    H2      21.838009   20.380174   21.510825 H          1 MOL1         0.3726
       4    H3      22.009967   19.835493   19.967109 H          1 MOL1         0.3726
       5    C1      19.980067   19.954062   20.577793 C.3        1 MOL1         0.0314
       6    H4      19.646941   19.272621   19.790413 H          1 MOL1         0.0999
       7    H5      19.874451   20.976969   20.206251 H          1 MOL1         0.0999
       8    C2      19.093723   19.779629   21.829024 C.3        1 MOL1        -0.1308
       9    H6      19.564147   20.266721   22.693415 H          1 MOL1         0.1025
      10    H7      18.154803   20.320999   21.652403 H          1 MOL1         0.1025
      11    C3      18.739524   18.308634   22.165805 C.3        1 MOL1        -0.1243
      12    H8      18.212977   17.851463   21.316238 H          1 MOL1         0.1025
      13    H9      18.025979   18.307235   23.001772 H          1 MOL1         0.1025
      14    C4      19.952173   17.431755   22.552388 C.3        1 MOL1        -0.2258
      15    H10     20.593694   17.228257   21.687105 H          1 MOL1         0.1036
      16    H11     19.612703   16.461222   22.937073 H          1 MOL1         0.1036
      17    H12     20.554840   17.908267   23.336533 H          1 MOL1         0.1036
@<TRIPOS>BOND
    1     1     2    1
    2     1     3    1
    3     1     4    1
    4     1     5    1
    5     5     6    1
    6     5     7    1
    7     5     8    1
    8     8     9    1
    9     8    10    1
   10     8    11    1
   11    11    12    1
   12    11    13    1
   13    11    14    1
   14    14    15    1
   15    14    16    1
   16    14    17    1
@<TRIPOS>SUBSTRUCTURE
       1 MOL1            1 RESIDUE      1      MOL     
@<SCITEGIC>MOL_PROPERTY
VConf Rank
SciTegic.value.IntegerValue
537

@<SCITEGIC>MOL_PROPERTY
Conf_Id
SciTegic.value.IntegerValue
19

@<SCITEGIC>MOL_PROPERTY
Delta U+W
SciTegic.value.DoubleValue
2.662

@<SCITEGIC>MOL_PROPERTY
U+W
SciTegic.value.DoubleValue
-13.203

@<SCITEGIC>MOL_PROPERTY
Grad RMS
SciTegic.value.DoubleValue
0.000000

@<SCITEGIC>MOL_PROPERTY
U
SciTegic.value.DoubleValue
47.423

@<SCITEGIC>MOL_PROPERTY
W
SciTegic.value.DoubleValue
-60.626

@<SCITEGIC>MOL_PROPERTY
W(PB)
SciTegic.value.DoubleValue
-62.328

@<SCITEGIC>MOL_PROPERTY
W(SA)
SciTegic.value.DoubleValue
1.702

@<SCITEGIC>MOL_PROPERTY
Valence
SciTegic.value.DoubleValue
2.414

@<SCITEGIC>MOL_PROPERTY
Coulomb
SciTegic.value.DoubleValue
44.831

@<SCITEGIC>MOL_PROPERTY
VdW
SciTegic.value.DoubleValue
0.178

@<SCITEGIC>MOL_PROPERTY
VdW6
SciTegic.value.DoubleValue
-3.743

@<SCITEGIC>MOL_PROPERTY
VdW12
SciTegic.value.DoubleValue
3.921

@<SCITEGIC>MOL_PROPERTY
Bond
SciTegic.value.DoubleValue
0.138

@<SCITEGIC>MOL_PROPERTY
Angle
SciTegic.value.DoubleValue
0.941

@<SCITEGIC>MOL_PROPERTY
Pdih
SciTegic.value.DoubleValue
1.335

@<SCITEGIC>MOL_PROPERTY
Idih
SciTegic.value.DoubleValue
0.000

@<SCITEGIC>MOL_PROPERTY
Tether
SciTegic.value.DoubleValue
0.000

@<TRIPOS>MOLECULE
guest-1_confgen4.mol2 : confsearch ligand conformer 538
          17          16           1
SMALL
USER_CHARGES
 
@<TRIPOS>ATOM
       1    N1      20.857715   20.588811   21.190797 N.4        1 MOL1        -0.5891
       2    H1      21.578851   21.249442   21.497967 H          1 MOL1         0.3726
       3    H2      20.403891   21.004147   20.371639 H          1 MOL1         0.3726
       4    H3      21.338438   19.743648   20.872285 H          1 MOL1         0.3726
       5    C1      19.861994   20.287245   22.294262 C.3        1 MOL1         0.0314
       6    H4      19.395629   21.236311   22.572315 H          1 MOL1         0.0999
       7    H5      20.408744   19.912096   23.163532 H          1 MOL1         0.0999
       8    C2      18.759776   19.282765   21.897090 C.3        1 MOL1        -0.1308
       9    H6      17.915004   19.423476   22.584409 H          1 MOL1         0.1025
      10    H7      18.376675   19.521854   20.896191 H          1 MOL1         0.1025
      11    C3      19.189685   17.795232   21.968699 C.3        1 MOL1        -0.1243
      12    H8      18.307520   17.170200   21.770935 H          1 MOL1         0.1025
      13    H9      19.511067   17.552230   22.991287 H          1 MOL1         0.1025
      14    C4      20.303958   17.403368   20.971846 C.3        1 MOL1        -0.2258
      15    H10     20.054320   17.719265   19.950552 H          1 MOL1         0.1036
      16    H11     20.437889   16.313838   20.959899 H          1 MOL1         0.1036
      17    H12     21.268056   17.842920   21.252898 H          1 MOL1         0.1036
@<TRIPOS>BOND
    1     1     2    1
    2     1     3    1
    3     1     4    1
    4     1     5    1
    5     5     6    1
    6     5     7    1
    7     5     8    1
    8     8     9    1
    9     8    10    1
   10     8    11    1
   11    11    12    1
   12    11    13    1
   13    11    14    1
   14    14    15    1
   15    14    16    1
   16    14    17    1
@<TRIPOS>SUBSTRUCTURE
       1 MOL1            1 RESIDUE      1      MOL     
@<SCITEGIC>MOL_PROPERTY
VConf Rank
SciTegic.value.IntegerValue
538

@<SCITEGIC>MOL_PROPERTY
Conf_Id
SciTegic.value.IntegerValue
44

@<SCITEGIC>MOL_PROPERTY
Delta U+W
SciTegic.value.DoubleValue
2.712

@<SCITEGIC>MOL_PROPERTY
U+W
SciTegic.value.DoubleValue
-13.153

@<SCITEGIC>MOL_PROPERTY
Grad RMS
SciTegic.value.DoubleValue
0.000000

@<SCITEGIC>MOL_PROPERTY
U
SciTegic.value.DoubleValue
47.423

@<SCITEGIC>MOL_PROPERTY
W
SciTegic.value.DoubleValue
-60.576

@<SCITEGIC>MOL_PROPERTY
W(PB)
SciTegic.value.DoubleValue
-62.262

@<SCITEGIC>MOL_PROPERTY
W(SA)
SciTegic.value.DoubleValue
1.687

@<SCITEGIC>MOL_PROPERTY
Valence
SciTegic.value.DoubleValue
2.414

@<SCITEGIC>MOL_PROPERTY
Coulomb
SciTegic.value.DoubleValue
44.831

@<SCITEGIC>MOL_PROPERTY
VdW
SciTegic.value.DoubleValue
0.178

@<SCITEGIC>MOL_PROPERTY
VdW6
SciTegic.value.DoubleValue
-3.743

@<SCITEGIC>MOL_PROPERTY
VdW12
SciTegic.value.DoubleValue
3.922

@<SCITEGIC>MOL_PROPERTY
Bond
SciTegic.value.DoubleValue
0.138

@<SCITEGIC>MOL_PROPERTY
Angle
SciTegic.value.DoubleValue
0.941

@<SCITEGIC>MOL_PROPERTY
Pdih
SciTegic.value.DoubleValue
1.335

@<SCITEGIC>MOL_PROPERTY
Idih
SciTegic.value.DoubleValue
0.000

@<SCITEGIC>MOL_PROPERTY
Tether
SciTegic.value.DoubleValue
0.000

@<TRIPOS>MOLECULE
guest-1_confgen4.mol2 : confsearch ligand conformer 539
          17          16           1
SMALL
USER_CHARGES
 
@<TRIPOS>ATOM
       1    N1      21.567082   19.628217   20.660366 N.4        1 MOL1        -0.5891
       2    H1      21.442753   18.633024   20.454018 H          1 MOL1         0.3726
       3    H2      22.359253   19.707173   21.305045 H          1 MOL1         0.3726
       4    H3      21.848845   20.082237   19.785641 H          1 MOL1         0.3726
       5    C1      20.306283   20.244607   21.235090 C.3        1 MOL1         0.0314
       6    H4      19.512965   20.153041   20.488720 H          1 MOL1         0.0999
       7    H5      20.498871   21.309040   21.394560 H          1 MOL1         0.0999
       8    C2      19.848821   19.603994   22.561839 C.3        1 MOL1        -0.1308
       9    H6      20.635505   19.736877   23.316306 H          1 MOL1         0.1025
      10    H7      18.973260   20.152800   22.933333 H          1 MOL1         0.1025
      11    C3      19.495922   18.100090   22.446556 C.3        1 MOL1        -0.1243
      12    H8      19.197092   17.729879   23.437287 H          1 MOL1         0.1025
      13    H9      20.387276   17.523663   22.163939 H          1 MOL1         0.1025
      14    C4      18.355178   17.821171   21.441217 C.3        1 MOL1        -0.2258
      15    H10     17.451242   18.386180   21.703384 H          1 MOL1         0.1036
      16    H11     18.094772   16.754796   21.440494 H          1 MOL1         0.1036
      17    H12     18.643521   18.091972   20.417755 H          1 MOL1         0.1036
@<TRIPOS>BOND
    1     1     2    1
    2     1     3    1
    3     1     4    1
    4     1     5    1
    5     5     6    1
    6     5     7    1
    7     5     8    1
    8     8     9    1
    9     8    10    1
   10     8    11    1
   11    11    12    1
   12    11    13    1
   13    11    14    1
   14    14    15    1
   15    14    16    1
   16    14    17    1
@<TRIPOS>SUBSTRUCTURE
       1 MOL1            1 RESIDUE      1      MOL     
@<SCITEGIC>MOL_PROPERTY
VConf Rank
SciTegic.value.IntegerValue
539

@<SCITEGIC>MOL_PROPERTY
Conf_Id
SciTegic.value.IntegerValue
1

@<SCITEGIC>MOL_PROPERTY
Delta U+W
SciTegic.value.DoubleValue
0.685

@<SCITEGIC>MOL_PROPERTY
U+W
SciTegic.value.DoubleValue
-15.179

@<SCITEGIC>MOL_PROPERTY
Grad RMS
SciTegic.value.DoubleValue
0.000000

@<SCITEGIC>MOL_PROPERTY
U
SciTegic.value.DoubleValue
45.697

@<SCITEGIC>MOL_PROPERTY
W
SciTegic.value.DoubleValue
-60.876

@<SCITEGIC>MOL_PROPERTY
W(PB)
SciTegic.value.DoubleValue
-62.586

@<SCITEGIC>MOL_PROPERTY
W(SA)
SciTegic.value.DoubleValue
1.710

@<SCITEGIC>MOL_PROPERTY
Valence
SciTegic.value.DoubleValue
1.263

@<SCITEGIC>MOL_PROPERTY
Coulomb
SciTegic.value.DoubleValue
44.179

@<SCITEGIC>MOL_PROPERTY
VdW
SciTegic.value.DoubleValue
0.255

@<SCITEGIC>MOL_PROPERTY
VdW6
SciTegic.value.DoubleValue
-3.552

@<SCITEGIC>MOL_PROPERTY
VdW12
SciTegic.value.DoubleValue
3.807

@<SCITEGIC>MOL_PROPERTY
Bond
SciTegic.value.DoubleValue
0.125

@<SCITEGIC>MOL_PROPERTY
Angle
SciTegic.value.DoubleValue
0.616

@<SCITEGIC>MOL_PROPERTY
Pdih
SciTegic.value.DoubleValue
0.521

@<SCITEGIC>MOL_PROPERTY
Idih
SciTegic.value.DoubleValue
0.000

@<SCITEGIC>MOL_PROPERTY
Tether
SciTegic.value.DoubleValue
0.000

@<TRIPOS>MOLECULE
guest-1_confgen4.mol2 : confsearch ligand conformer 540
          17          16           1
SMALL
USER_CHARGES
 
@<TRIPOS>ATOM
       1    N1      18.460043   20.187809   22.275024 N.4        1 MOL1        -0.5891
       2    H1      18.824724   20.986188   22.803205 H          1 MOL1         0.3726
       3    H2      18.506453   19.370927   22.890653 H          1 MOL1         0.3726
       4    H3      17.467479   20.374861   22.100392 H          1 MOL1         0.3726
       5    C1      19.227131   19.964197   20.986059 C.3        1 MOL1         0.0314
       6    H4      19.103243   20.856120   20.365848 H          1 MOL1         0.0999
       7    H5      18.770121   19.121505   20.460876 H          1 MOL1         0.0999
       8    C2      20.731234   19.692728   21.195585 C.3        1 MOL1        -0.1308
       9    H6      21.213173   19.608253   20.212528 H          1 MOL1         0.1025
      10    H7      21.189234   20.561439   21.686834 H          1 MOL1         0.1025
      11    C3      21.032151   18.417270   22.021547 C.3        1 MOL1        -0.1243
      12    H8      20.634823   18.524490   23.040021 H          1 MOL1         0.1025
      13    H9      22.121010   18.314870   22.130195 H          1 MOL1         0.1025
      14    C4      20.468765   17.130708   21.375674 C.3        1 MOL1        -0.2258
      15    H10     20.760903   16.247561   21.958490 H          1 MOL1         0.1036
      16    H11     20.852851   17.000483   20.355583 H          1 MOL1         0.1036
      17    H12     19.372649   17.148633   21.329226 H          1 MOL1         0.1036
@<TRIPOS>BOND
    1     1     2    1
    2     1     3    1
    3     1     4    1
    4     1     5    1
    5     5     6    1
    6     5     7    1
    7     5     8    1
    8     8     9    1
    9     8    10    1
   10     8    11    1
   11    11    12    1
   12    11    13    1
   13    11    14    1
   14    14    15    1
   15    14    16    1
   16    14    17    1
@<TRIPOS>SUBSTRUCTURE
       1 MOL1            1 RESIDUE      1      MOL     
@<SCITEGIC>MOL_PROPERTY
VConf Rank
SciTegic.value.IntegerValue
540

@<SCITEGIC>MOL_PROPERTY
Conf_Id
SciTegic.value.IntegerValue
43

@<SCITEGIC>MOL_PROPERTY
Delta U+W
SciTegic.value.DoubleValue
0.642

@<SCITEGIC>MOL_PROPERTY
U+W
SciTegic.value.DoubleValue
-15.222

@<SCITEGIC>MOL_PROPERTY
Grad RMS
SciTegic.value.DoubleValue
0.000000

@<SCITEGIC>MOL_PROPERTY
U
SciTegic.value.DoubleValue
45.697

@<SCITEGIC>MOL_PROPERTY
W
SciTegic.value.DoubleValue
-60.919

@<SCITEGIC>MOL_PROPERTY
W(PB)
SciTegic.value.DoubleValue
-62.631

@<SCITEGIC>MOL_PROPERTY
W(SA)
SciTegic.value.DoubleValue
1.712

@<SCITEGIC>MOL_PROPERTY
Valence
SciTegic.value.DoubleValue
1.262

@<SCITEGIC>MOL_PROPERTY
Coulomb
SciTegic.value.DoubleValue
44.179

@<SCITEGIC>MOL_PROPERTY
VdW
SciTegic.value.DoubleValue
0.255

@<SCITEGIC>MOL_PROPERTY
VdW6
SciTegic.value.DoubleValue
-3.552

@<SCITEGIC>MOL_PROPERTY
VdW12
SciTegic.value.DoubleValue
3.807

@<SCITEGIC>MOL_PROPERTY
Bond
SciTegic.value.DoubleValue
0.125

@<SCITEGIC>MOL_PROPERTY
Angle
SciTegic.value.DoubleValue
0.616

@<SCITEGIC>MOL_PROPERTY
Pdih
SciTegic.value.DoubleValue
0.521

@<SCITEGIC>MOL_PROPERTY
Idih
SciTegic.value.DoubleValue
0.000

@<SCITEGIC>MOL_PROPERTY
Tether
SciTegic.value.DoubleValue
0.000

@<TRIPOS>MOLECULE
guest-1_confgen4.mol2 : confsearch ligand conformer 541
          17          16           1
SMALL
USER_CHARGES
 
@<TRIPOS>ATOM
       1    N1      17.408924   19.299172   21.806674 N.4        1 MOL1        -0.5891
       2    H1      17.328306   19.022812   22.789945 H          1 MOL1         0.3726
       3    H2      17.153768   18.482611   21.242919 H          1 MOL1         0.3726
       4    H3      16.690467   20.010982   21.639178 H          1 MOL1         0.3726
       5    C1      18.796427   19.809267   21.472015 C.3        1 MOL1         0.0314
       6    H4      18.987836   20.694036   22.085259 H          1 MOL1         0.0999
       7    H5      18.800141   20.113189   20.421710 H          1 MOL1         0.0999
       8    C2      19.901279   18.764339   21.712203 C.3        1 MOL1        -0.1308
       9    H6      19.884423   18.450117   22.764330 H          1 MOL1         0.1025
      10    H7      19.697458   17.871338   21.106400 H          1 MOL1         0.1025
      11    C3      21.297029   19.323806   21.359497 C.3        1 MOL1        -0.1243
      12    H8      21.500255   20.219656   21.963217 H          1 MOL1         0.1025
      13    H9      21.313549   19.641515   20.307303 H          1 MOL1         0.1025
      14    C4      22.410518   18.281111   21.598000 C.3        1 MOL1        -0.2258
      15    H10     23.393302   18.697691   21.341787 H          1 MOL1         0.1036
      16    H11     22.253295   17.386670   20.981182 H          1 MOL1         0.1036
      17    H12     22.441427   17.969334   22.650163 H          1 MOL1         0.1036
@<TRIPOS>BOND
    1     1     2    1
    2     1     3    1
    3     1     4    1
    4     1     5    1
    5     5     6    1
    6     5     7    1
    7     5     8    1
    8     8     9    1
    9     8    10    1
   10     8    11    1
   11    11    12    1
   12    11    13    1
   13    11    14    1
   14    14    15    1
   15    14    16    1
   16    14    17    1
@<TRIPOS>SUBSTRUCTURE
       1 MOL1            1 RESIDUE      1      MOL     
@<SCITEGIC>MOL_PROPERTY
VConf Rank
SciTegic.value.IntegerValue
541

@<SCITEGIC>MOL_PROPERTY
Conf_Id
SciTegic.value.IntegerValue
7

@<SCITEGIC>MOL_PROPERTY
Delta U+W
SciTegic.value.DoubleValue
0.000

@<SCITEGIC>MOL_PROPERTY
U+W
SciTegic.value.DoubleValue
-15.865

@<SCITEGIC>MOL_PROPERTY
Grad RMS
SciTegic.value.DoubleValue
0.000000

@<SCITEGIC>MOL_PROPERTY
U
SciTegic.value.DoubleValue
44.664

@<SCITEGIC>MOL_PROPERTY
W
SciTegic.value.DoubleValue
-60.529

@<SCITEGIC>MOL_PROPERTY
W(PB)
SciTegic.value.DoubleValue
-62.309

@<SCITEGIC>MOL_PROPERTY
W(SA)
SciTegic.value.DoubleValue
1.780

@<SCITEGIC>MOL_PROPERTY
Valence
SciTegic.value.DoubleValue
0.872

@<SCITEGIC>MOL_PROPERTY
Coulomb
SciTegic.value.DoubleValue
43.648

@<SCITEGIC>MOL_PROPERTY
VdW
SciTegic.value.DoubleValue
0.144

@<SCITEGIC>MOL_PROPERTY
VdW6
SciTegic.value.DoubleValue
-2.370

@<SCITEGIC>MOL_PROPERTY
VdW12
SciTegic.value.DoubleValue
2.515

@<SCITEGIC>MOL_PROPERTY
Bond
SciTegic.value.DoubleValue
0.080

@<SCITEGIC>MOL_PROPERTY
Angle
SciTegic.value.DoubleValue
0.376

@<SCITEGIC>MOL_PROPERTY
Pdih
SciTegic.value.DoubleValue
0.416

@<SCITEGIC>MOL_PROPERTY
Idih
SciTegic.value.DoubleValue
0.000

@<SCITEGIC>MOL_PROPERTY
Tether
SciTegic.value.DoubleValue
0.000

@<TRIPOS>MOLECULE
guest-1_confgen4.mol2 : confsearch ligand conformer 542
          17          16           1
SMALL
USER_CHARGES
 
@<TRIPOS>ATOM
       1    N1      18.382087   17.383851   20.910147 N.4        1 MOL1        -0.5891
       2    H1      17.431354   17.763728   20.948189 H          1 MOL1         0.3726
       3    H2      18.488034   16.757569   21.714009 H          1 MOL1         0.3726
       4    H3      18.433973   16.798971   20.069870 H          1 MOL1         0.3726
       5    C1      19.430847   18.478098   20.900991 C.3        1 MOL1         0.0314
       6    H4      19.276926   19.086226   20.005504 H          1 MOL1         0.0999
       7    H5      20.412150   18.002147   20.827825 H          1 MOL1         0.0999
       8    C2      19.381013   19.376751   22.151549 C.3        1 MOL1        -0.1308
       9    H6      18.379211   19.818163   22.237725 H          1 MOL1         0.1025
      10    H7      19.533938   18.765694   23.051055 H          1 MOL1         0.1025
      11    C3      20.429770   20.512771   22.111871 C.3        1 MOL1        -0.1243
      12    H8      20.287847   21.160358   22.988496 H          1 MOL1         0.1025
      13    H9      20.257381   21.145281   21.229604 H          1 MOL1         0.1025
      14    C4      21.885124   19.991452   22.100580 C.3        1 MOL1        -0.2258
      15    H10     22.082052   19.350753   22.969976 H          1 MOL1         0.1036
      16    H11     22.594180   20.828769   22.134434 H          1 MOL1         0.1036
      17    H12     22.099496   19.413191   21.192973 H          1 MOL1         0.1036
@<TRIPOS>BOND
    1     1     2    1
    2     1     3    1
    3     1     4    1
    4     1     5    1
    5     5     6    1
    6     5     7    1
    7     5     8    1
    8     8     9    1
    9     8    10    1
   10     8    11    1
   11    11    12    1
   12    11    13    1
   13    11    14    1
   14    14    15    1
   15    14    16    1
   16    14    17    1
@<TRIPOS>SUBSTRUCTURE
       1 MOL1            1 RESIDUE      1      MOL     
@<SCITEGIC>MOL_PROPERTY
VConf Rank
SciTegic.value.IntegerValue
542

@<SCITEGIC>MOL_PROPERTY
Conf_Id
SciTegic.value.IntegerValue
36

@<SCITEGIC>MOL_PROPERTY
Delta U+W
SciTegic.value.DoubleValue
0.275

@<SCITEGIC>MOL_PROPERTY
U+W
SciTegic.value.DoubleValue
-15.590

@<SCITEGIC>MOL_PROPERTY
Grad RMS
SciTegic.value.DoubleValue
0.000000

@<SCITEGIC>MOL_PROPERTY
U
SciTegic.value.DoubleValue
45.174

@<SCITEGIC>MOL_PROPERTY
W
SciTegic.value.DoubleValue
-60.765

@<SCITEGIC>MOL_PROPERTY
W(PB)
SciTegic.value.DoubleValue
-62.518

@<SCITEGIC>MOL_PROPERTY
W(SA)
SciTegic.value.DoubleValue
1.754

@<SCITEGIC>MOL_PROPERTY
Valence
SciTegic.value.DoubleValue
1.161

@<SCITEGIC>MOL_PROPERTY
Coulomb
SciTegic.value.DoubleValue
43.789

@<SCITEGIC>MOL_PROPERTY
VdW
SciTegic.value.DoubleValue
0.224

@<SCITEGIC>MOL_PROPERTY
VdW6
SciTegic.value.DoubleValue
-2.897

@<SCITEGIC>MOL_PROPERTY
VdW12
SciTegic.value.DoubleValue
3.121

@<SCITEGIC>MOL_PROPERTY
Bond
SciTegic.value.DoubleValue
0.100

@<SCITEGIC>MOL_PROPERTY
Angle
SciTegic.value.DoubleValue
0.500

@<SCITEGIC>MOL_PROPERTY
Pdih
SciTegic.value.DoubleValue
0.561

@<SCITEGIC>MOL_PROPERTY
Idih
SciTegic.value.DoubleValue
0.000

@<SCITEGIC>MOL_PROPERTY
Tether
SciTegic.value.DoubleValue
0.000

@<TRIPOS>MOLECULE
guest-1_confgen4.mol2 : confsearch ligand conformer 543
          17          16           1
SMALL
USER_CHARGES
 
@<TRIPOS>ATOM
       1    N1      19.841329   18.422990   19.833109 N.4        1 MOL1        -0.5891
       2    H1      19.558340   17.679393   20.476403 H          1 MOL1         0.3726
       3    H2      20.804355   18.223156   19.546533 H          1 MOL1         0.3726
       4    H3      19.257679   18.336172   18.994874 H          1 MOL1         0.3726
       5    C1      19.715539   19.794254   20.468594 C.3        1 MOL1         0.0314
       6    H4      18.661166   19.979740   20.690397 H          1 MOL1         0.0999
       7    H5      20.036834   20.524088   19.720496 H          1 MOL1         0.0999
       8    C2      20.558970   19.980631   21.747460 C.3        1 MOL1        -0.1308
       9    H6      21.563074   19.561552   21.599550 H          1 MOL1         0.1025
      10    H7      20.702060   21.058629   21.900080 H          1 MOL1         0.1025
      11    C3      19.915735   19.398724   23.032114 C.3        1 MOL1        -0.1243
      12    H8      18.938832   19.872355   23.203454 H          1 MOL1         0.1025
      13    H9      20.543270   19.677758   23.890210 H          1 MOL1         0.1025
      14    C4      19.748728   17.862196   23.023567 C.3        1 MOL1        -0.2258
      15    H10     18.970041   17.546018   22.319753 H          1 MOL1         0.1036
      16    H11     19.448067   17.506602   24.017706 H          1 MOL1         0.1036
      17    H12     20.689180   17.360458   22.760960 H          1 MOL1         0.1036
@<TRIPOS>BOND
    1     1     2    1
    2     1     3    1
    3     1     4    1
    4     1     5    1
    5     5     6    1
    6     5     7    1
    7     5     8    1
    8     8     9    1
    9     8    10    1
   10     8    11    1
   11    11    12    1
   12    11    13    1
   13    11    14    1
   14    14    15    1
   15    14    16    1
   16    14    17    1
@<TRIPOS>SUBSTRUCTURE
       1 MOL1            1 RESIDUE      1      MOL     
@<SCITEGIC>MOL_PROPERTY
VConf Rank
SciTegic.value.IntegerValue
543

@<SCITEGIC>MOL_PROPERTY
Conf_Id
SciTegic.value.IntegerValue
19

@<SCITEGIC>MOL_PROPERTY
Delta U+W
SciTegic.value.DoubleValue
2.662

@<SCITEGIC>MOL_PROPERTY
U+W
SciTegic.value.DoubleValue
-13.203

@<SCITEGIC>MOL_PROPERTY
Grad RMS
SciTegic.value.DoubleValue
0.000000

@<SCITEGIC>MOL_PROPERTY
U
SciTegic.value.DoubleValue
47.423

@<SCITEGIC>MOL_PROPERTY
W
SciTegic.value.DoubleValue
-60.626

@<SCITEGIC>MOL_PROPERTY
W(PB)
SciTegic.value.DoubleValue
-62.328

@<SCITEGIC>MOL_PROPERTY
W(SA)
SciTegic.value.DoubleValue
1.702

@<SCITEGIC>MOL_PROPERTY
Valence
SciTegic.value.DoubleValue
2.414

@<SCITEGIC>MOL_PROPERTY
Coulomb
SciTegic.value.DoubleValue
44.831

@<SCITEGIC>MOL_PROPERTY
VdW
SciTegic.value.DoubleValue
0.178

@<SCITEGIC>MOL_PROPERTY
VdW6
SciTegic.value.DoubleValue
-3.743

@<SCITEGIC>MOL_PROPERTY
VdW12
SciTegic.value.DoubleValue
3.921

@<SCITEGIC>MOL_PROPERTY
Bond
SciTegic.value.DoubleValue
0.138

@<SCITEGIC>MOL_PROPERTY
Angle
SciTegic.value.DoubleValue
0.941

@<SCITEGIC>MOL_PROPERTY
Pdih
SciTegic.value.DoubleValue
1.335

@<SCITEGIC>MOL_PROPERTY
Idih
SciTegic.value.DoubleValue
0.000

@<SCITEGIC>MOL_PROPERTY
Tether
SciTegic.value.DoubleValue
0.000

@<TRIPOS>MOLECULE
guest-1_confgen4.mol2 : confsearch ligand conformer 544
          17          16           1
SMALL
USER_CHARGES
 
@<TRIPOS>ATOM
       1    N1      18.910113   17.650597   20.877569 N.4        1 MOL1        -0.5891
       2    H1      18.935934   16.801282   20.304139 H          1 MOL1         0.3726
       3    H2      17.922672   17.886124   21.015290 H          1 MOL1         0.3726
       4    H3      19.292219   17.407243   21.794966 H          1 MOL1         0.3726
       5    C1      19.676606   18.789727   20.233433 C.3        1 MOL1         0.0314
       6    H4      19.205563   18.985565   19.266322 H          1 MOL1         0.0999
       7    H5      20.702112   18.458741   20.048808 H          1 MOL1         0.0999
       8    C2      19.689170   20.093111   21.059656 C.3        1 MOL1        -0.1308
       9    H6      19.914004   20.921557   20.374840 H          1 MOL1         0.1025
      10    H7      18.685924   20.295219   21.457624 H          1 MOL1         0.1025
      11    C3      20.737567   20.120477   22.201067 C.3        1 MOL1        -0.1243
      12    H8      20.732908   21.123148   22.651201 H          1 MOL1         0.1025
      13    H9      21.743918   19.980328   21.781977 H          1 MOL1         0.1025
      14    C4      20.494743   19.078942   23.316916 C.3        1 MOL1        -0.2258
      15    H10     19.464379   19.129780   23.692307 H          1 MOL1         0.1036
      16    H11     21.167311   19.265346   24.164301 H          1 MOL1         0.1036
      17    H12     20.694069   18.059659   22.966186 H          1 MOL1         0.1036
@<TRIPOS>BOND
    1     1     2    1
    2     1     3    1
    3     1     4    1
    4     1     5    1
    5     5     6    1
    6     5     7    1
    7     5     8    1
    8     8     9    1
    9     8    10    1
   10     8    11    1
   11    11    12    1
   12    11    13    1
   13    11    14    1
   14    14    15    1
   15    14    16    1
   16    14    17    1
@<TRIPOS>SUBSTRUCTURE
       1 MOL1            1 RESIDUE      1      MOL     
@<SCITEGIC>MOL_PROPERTY
VConf Rank
SciTegic.value.IntegerValue
544

@<SCITEGIC>MOL_PROPERTY
Conf_Id
SciTegic.value.IntegerValue
44

@<SCITEGIC>MOL_PROPERTY
Delta U+W
SciTegic.value.DoubleValue
2.712

@<SCITEGIC>MOL_PROPERTY
U+W
SciTegic.value.DoubleValue
-13.153

@<SCITEGIC>MOL_PROPERTY
Grad RMS
SciTegic.value.DoubleValue
0.000000

@<SCITEGIC>MOL_PROPERTY
U
SciTegic.value.DoubleValue
47.423

@<SCITEGIC>MOL_PROPERTY
W
SciTegic.value.DoubleValue
-60.576

@<SCITEGIC>MOL_PROPERTY
W(PB)
SciTegic.value.DoubleValue
-62.262

@<SCITEGIC>MOL_PROPERTY
W(SA)
SciTegic.value.DoubleValue
1.687

@<SCITEGIC>MOL_PROPERTY
Valence
SciTegic.value.DoubleValue
2.414

@<SCITEGIC>MOL_PROPERTY
Coulomb
SciTegic.value.DoubleValue
44.831

@<SCITEGIC>MOL_PROPERTY
VdW
SciTegic.value.DoubleValue
0.178

@<SCITEGIC>MOL_PROPERTY
VdW6
SciTegic.value.DoubleValue
-3.743

@<SCITEGIC>MOL_PROPERTY
VdW12
SciTegic.value.DoubleValue
3.922

@<SCITEGIC>MOL_PROPERTY
Bond
SciTegic.value.DoubleValue
0.138

@<SCITEGIC>MOL_PROPERTY
Angle
SciTegic.value.DoubleValue
0.941

@<SCITEGIC>MOL_PROPERTY
Pdih
SciTegic.value.DoubleValue
1.335

@<SCITEGIC>MOL_PROPERTY
Idih
SciTegic.value.DoubleValue
0.000

@<SCITEGIC>MOL_PROPERTY
Tether
SciTegic.value.DoubleValue
0.000

@<TRIPOS>MOLECULE
guest-1_confgen4.mol2 : confsearch ligand conformer 545
          17          16           1
SMALL
USER_CHARGES
 
@<TRIPOS>ATOM
       1    N1      19.017422   20.482002   22.624064 N.4        1 MOL1        -0.5891
       2    H1      18.318678   20.079520   21.993024 H          1 MOL1         0.3726
       3    H2      19.257166   21.408622   22.258993 H          1 MOL1         0.3726
       4    H3      18.555732   20.628362   23.527441 H          1 MOL1         0.3726
       5    C1      20.238042   19.591211   22.752256 C.3        1 MOL1         0.0314
       6    H4      19.917464   18.634501   23.172659 H          1 MOL1         0.0999
       7    H5      20.920338   20.061905   23.465318 H          1 MOL1         0.0999
       8    C2      20.977331   19.352240   21.419490 C.3        1 MOL1        -0.1308
       9    H6      21.330668   20.314477   21.025787 H          1 MOL1         0.1025
      10    H7      21.876825   18.754822   21.619005 H          1 MOL1         0.1025
      11    C3      20.121121   18.639635   20.343081 C.3        1 MOL1        -0.1243
      12    H8      20.722709   18.526623   19.430270 H          1 MOL1         0.1025
      13    H9      19.264151   19.268175   20.065242 H          1 MOL1         0.1025
      14    C4      19.621743   17.246868   20.790988 C.3        1 MOL1        -0.2258
      15    H10     20.461453   16.598614   21.073338 H          1 MOL1         0.1036
      16    H11     19.076899   16.752803   19.976118 H          1 MOL1         0.1036
      17    H12     18.940901   17.318382   21.648477 H          1 MOL1         0.1036
@<TRIPOS>BOND
    1     1     2    1
    2     1     3    1
    3     1     4    1
    4     1     5    1
    5     5     6    1
    6     5     7    1
    7     5     8    1
    8     8     9    1
    9     8    10    1
   10     8    11    1
   11    11    12    1
   12    11    13    1
   13    11    14    1
   14    14    15    1
   15    14    16    1
   16    14    17    1
@<TRIPOS>SUBSTRUCTURE
       1 MOL1            1 RESIDUE      1      MOL     
@<SCITEGIC>MOL_PROPERTY
VConf Rank
SciTegic.value.IntegerValue
545

@<SCITEGIC>MOL_PROPERTY
Conf_Id
SciTegic.value.IntegerValue
1

@<SCITEGIC>MOL_PROPERTY
Delta U+W
SciTegic.value.DoubleValue
0.685

@<SCITEGIC>MOL_PROPERTY
U+W
SciTegic.value.DoubleValue
-15.179

@<SCITEGIC>MOL_PROPERTY
Grad RMS
SciTegic.value.DoubleValue
0.000000

@<SCITEGIC>MOL_PROPERTY
U
SciTegic.value.DoubleValue
45.697

@<SCITEGIC>MOL_PROPERTY
W
SciTegic.value.DoubleValue
-60.876

@<SCITEGIC>MOL_PROPERTY
W(PB)
SciTegic.value.DoubleValue
-62.586

@<SCITEGIC>MOL_PROPERTY
W(SA)
SciTegic.value.DoubleValue
1.710

@<SCITEGIC>MOL_PROPERTY
Valence
SciTegic.value.DoubleValue
1.263

@<SCITEGIC>MOL_PROPERTY
Coulomb
SciTegic.value.DoubleValue
44.179

@<SCITEGIC>MOL_PROPERTY
VdW
SciTegic.value.DoubleValue
0.255

@<SCITEGIC>MOL_PROPERTY
VdW6
SciTegic.value.DoubleValue
-3.552

@<SCITEGIC>MOL_PROPERTY
VdW12
SciTegic.value.DoubleValue
3.807

@<SCITEGIC>MOL_PROPERTY
Bond
SciTegic.value.DoubleValue
0.125

@<SCITEGIC>MOL_PROPERTY
Angle
SciTegic.value.DoubleValue
0.616

@<SCITEGIC>MOL_PROPERTY
Pdih
SciTegic.value.DoubleValue
0.521

@<SCITEGIC>MOL_PROPERTY
Idih
SciTegic.value.DoubleValue
0.000

@<SCITEGIC>MOL_PROPERTY
Tether
SciTegic.value.DoubleValue
0.000

@<TRIPOS>MOLECULE
guest-1_confgen4.mol2 : confsearch ligand conformer 546
          17          16           1
SMALL
USER_CHARGES
 
@<TRIPOS>ATOM
       1    N1      20.114846   19.811086   23.415688 N.4        1 MOL1        -0.5891
       2    H1      20.511166   19.135671   24.076085 H          1 MOL1         0.3726
       3    H2      19.127172   19.570547   23.292851 H          1 MOL1         0.3726
       4    H3      20.144873   20.727703   23.873485 H          1 MOL1         0.3726
       5    C1      20.860446   19.815504   22.095113 C.3        1 MOL1         0.0314
       6    H4      21.892447   20.115486   22.296414 H          1 MOL1         0.0999
       7    H5      20.407439   20.574486   21.452045 H          1 MOL1         0.0999
       8    C2      20.856461   18.452173   21.373149 C.3        1 MOL1        -0.1308
       9    H6      21.469754   18.533376   20.465911 H          1 MOL1         0.1025
      10    H7      21.349826   17.705800   22.009754 H          1 MOL1         0.1025
      11    C3      19.443435   17.946789   20.989084 C.3        1 MOL1        -0.1243
      12    H8      18.845860   17.772426   21.894155 H          1 MOL1         0.1025
      13    H9      19.539252   16.969181   20.496128 H          1 MOL1         0.1025
      14    C4      18.690373   18.912981   20.046127 C.3        1 MOL1        -0.2258
      15    H10     17.724019   18.485573   19.748717 H          1 MOL1         0.1036
      16    H11     19.267993   19.102445   19.132056 H          1 MOL1         0.1036
      17    H12     18.490623   19.876811   20.530977 H          1 MOL1         0.1036
@<TRIPOS>BOND
    1     1     2    1
    2     1     3    1
    3     1     4    1
    4     1     5    1
    5     5     6    1
    6     5     7    1
    7     5     8    1
    8     8     9    1
    9     8    10    1
   10     8    11    1
   11    11    12    1
   12    11    13    1
   13    11    14    1
   14    14    15    1
   15    14    16    1
   16    14    17    1
@<TRIPOS>SUBSTRUCTURE
       1 MOL1            1 RESIDUE      1      MOL     
@<SCITEGIC>MOL_PROPERTY
VConf Rank
SciTegic.value.IntegerValue
546

@<SCITEGIC>MOL_PROPERTY
Conf_Id
SciTegic.value.IntegerValue
43

@<SCITEGIC>MOL_PROPERTY
Delta U+W
SciTegic.value.DoubleValue
0.642

@<SCITEGIC>MOL_PROPERTY
U+W
SciTegic.value.DoubleValue
-15.222

@<SCITEGIC>MOL_PROPERTY
Grad RMS
SciTegic.value.DoubleValue
0.000000

@<SCITEGIC>MOL_PROPERTY
U
SciTegic.value.DoubleValue
45.697

@<SCITEGIC>MOL_PROPERTY
W
SciTegic.value.DoubleValue
-60.919

@<SCITEGIC>MOL_PROPERTY
W(PB)
SciTegic.value.DoubleValue
-62.631

@<SCITEGIC>MOL_PROPERTY
W(SA)
SciTegic.value.DoubleValue
1.712

@<SCITEGIC>MOL_PROPERTY
Valence
SciTegic.value.DoubleValue
1.262

@<SCITEGIC>MOL_PROPERTY
Coulomb
SciTegic.value.DoubleValue
44.179

@<SCITEGIC>MOL_PROPERTY
VdW
SciTegic.value.DoubleValue
0.255

@<SCITEGIC>MOL_PROPERTY
VdW6
SciTegic.value.DoubleValue
-3.552

@<SCITEGIC>MOL_PROPERTY
VdW12
SciTegic.value.DoubleValue
3.807

@<SCITEGIC>MOL_PROPERTY
Bond
SciTegic.value.DoubleValue
0.125

@<SCITEGIC>MOL_PROPERTY
Angle
SciTegic.value.DoubleValue
0.616

@<SCITEGIC>MOL_PROPERTY
Pdih
SciTegic.value.DoubleValue
0.521

@<SCITEGIC>MOL_PROPERTY
Idih
SciTegic.value.DoubleValue
0.000

@<SCITEGIC>MOL_PROPERTY
Tether
SciTegic.value.DoubleValue
0.000

@<TRIPOS>MOLECULE
guest-1_confgen4.mol2 : confsearch ligand conformer 547
          17          16           1
SMALL
USER_CHARGES
 
@<TRIPOS>ATOM
       1    N1      18.055592   20.769780   21.837285 N.4        1 MOL1        -0.5891
       2    H1      18.472465   21.329624   22.587277 H          1 MOL1         0.3726
       3    H2      17.369660   20.146051   22.273355 H          1 MOL1         0.3726
       4    H3      17.530141   21.417474   21.241213 H          1 MOL1         0.3726
       5    C1      19.101408   20.003600   21.052050 C.3        1 MOL1         0.0314
       6    H4      19.777088   20.729694   20.591868 H          1 MOL1         0.0999
       7    H5      18.591218   19.457001   20.254265 H          1 MOL1         0.0999
       8    C2      19.910252   19.020327   21.917617 C.3        1 MOL1        -0.1308
       9    H6      20.408659   19.570629   22.726783 H          1 MOL1         0.1025
      10    H7      19.226895   18.302232   22.390218 H          1 MOL1         0.1025
      11    C3      20.963116   18.261592   21.080168 C.3        1 MOL1        -0.1243
      12    H8      21.645442   18.980042   20.604157 H          1 MOL1         0.1025
      13    H9      20.465126   17.713137   20.268054 H          1 MOL1         0.1025
      14    C4      21.778492   17.273352   21.941851 C.3        1 MOL1        -0.2258
      15    H10     22.520238   16.744958   21.328939 H          1 MOL1         0.1036
      16    H11     21.126516   16.520621   22.403944 H          1 MOL1         0.1036
      17    H12     22.316099   17.797531   22.742739 H          1 MOL1         0.1036
@<TRIPOS>BOND
    1     1     2    1
    2     1     3    1
    3     1     4    1
    4     1     5    1
    5     5     6    1
    6     5     7    1
    7     5     8    1
    8     8     9    1
    9     8    10    1
   10     8    11    1
   11    11    12    1
   12    11    13    1
   13    11    14    1
   14    14    15    1
   15    14    16    1
   16    14    17    1
@<TRIPOS>SUBSTRUCTURE
       1 MOL1            1 RESIDUE      1      MOL     
@<SCITEGIC>MOL_PROPERTY
VConf Rank
SciTegic.value.IntegerValue
547

@<SCITEGIC>MOL_PROPERTY
Conf_Id
SciTegic.value.IntegerValue
7

@<SCITEGIC>MOL_PROPERTY
Delta U+W
SciTegic.value.DoubleValue
0.000

@<SCITEGIC>MOL_PROPERTY
U+W
SciTegic.value.DoubleValue
-15.865

@<SCITEGIC>MOL_PROPERTY
Grad RMS
SciTegic.value.DoubleValue
0.000000

@<SCITEGIC>MOL_PROPERTY
U
SciTegic.value.DoubleValue
44.664

@<SCITEGIC>MOL_PROPERTY
W
SciTegic.value.DoubleValue
-60.529

@<SCITEGIC>MOL_PROPERTY
W(PB)
SciTegic.value.DoubleValue
-62.309

@<SCITEGIC>MOL_PROPERTY
W(SA)
SciTegic.value.DoubleValue
1.780

@<SCITEGIC>MOL_PROPERTY
Valence
SciTegic.value.DoubleValue
0.872

@<SCITEGIC>MOL_PROPERTY
Coulomb
SciTegic.value.DoubleValue
43.648

@<SCITEGIC>MOL_PROPERTY
VdW
SciTegic.value.DoubleValue
0.144

@<SCITEGIC>MOL_PROPERTY
VdW6
SciTegic.value.DoubleValue
-2.370

@<SCITEGIC>MOL_PROPERTY
VdW12
SciTegic.value.DoubleValue
2.515

@<SCITEGIC>MOL_PROPERTY
Bond
SciTegic.value.DoubleValue
0.080

@<SCITEGIC>MOL_PROPERTY
Angle
SciTegic.value.DoubleValue
0.376

@<SCITEGIC>MOL_PROPERTY
Pdih
SciTegic.value.DoubleValue
0.416

@<SCITEGIC>MOL_PROPERTY
Idih
SciTegic.value.DoubleValue
0.000

@<SCITEGIC>MOL_PROPERTY
Tether
SciTegic.value.DoubleValue
0.000

@<TRIPOS>MOLECULE
guest-1_confgen4.mol2 : confsearch ligand conformer 548
          17          16           1
SMALL
USER_CHARGES
 
@<TRIPOS>ATOM
       1    N1      21.792792   19.593006   23.071265 N.4        1 MOL1        -0.5891
       2    H1      22.480856   18.838049   22.992173 H          1 MOL1         0.3726
       3    H2      21.310544   19.467748   23.966471 H          1 MOL1         0.3726
       4    H3      22.320763   20.469074   23.139047 H          1 MOL1         0.3726
       5    C1      20.827021   19.605770   21.903156 C.3        1 MOL1         0.0314
       6    H4      21.403928   19.772569   20.989502 H          1 MOL1         0.0999
       7    H5      20.147264   20.450998   22.038644 H          1 MOL1         0.0999
       8    C2      20.015945   18.302325   21.772212 C.3        1 MOL1        -0.1308
       9    H6      20.708619   17.455570   21.676889 H          1 MOL1         0.1025
      10    H7      19.437818   18.133942   22.690528 H          1 MOL1         0.1025
      11    C3      19.063053   18.312584   20.554059 C.3        1 MOL1        -0.1243
      12    H8      18.577570   17.329927   20.472366 H          1 MOL1         0.1025
      13    H9      19.643840   18.447745   19.630696 H          1 MOL1         0.1025
      14    C4      17.974575   19.406399   20.647556 C.3        1 MOL1        -0.2258
      15    H10     17.382858   19.297488   21.565780 H          1 MOL1         0.1036
      16    H11     17.285873   19.337889   19.795498 H          1 MOL1         0.1036
      17    H12     18.412063   20.412690   20.638955 H          1 MOL1         0.1036
@<TRIPOS>BOND
    1     1     2    1
    2     1     3    1
    3     1     4    1
    4     1     5    1
    5     5     6    1
    6     5     7    1
    7     5     8    1
    8     8     9    1
    9     8    10    1
   10     8    11    1
   11    11    12    1
   12    11    13    1
   13    11    14    1
   14    14    15    1
   15    14    16    1
   16    14    17    1
@<TRIPOS>SUBSTRUCTURE
       1 MOL1            1 RESIDUE      1      MOL     
@<SCITEGIC>MOL_PROPERTY
VConf Rank
SciTegic.value.IntegerValue
548

@<SCITEGIC>MOL_PROPERTY
Conf_Id
SciTegic.value.IntegerValue
36

@<SCITEGIC>MOL_PROPERTY
Delta U+W
SciTegic.value.DoubleValue
0.275

@<SCITEGIC>MOL_PROPERTY
U+W
SciTegic.value.DoubleValue
-15.590

@<SCITEGIC>MOL_PROPERTY
Grad RMS
SciTegic.value.DoubleValue
0.000000

@<SCITEGIC>MOL_PROPERTY
U
SciTegic.value.DoubleValue
45.174

@<SCITEGIC>MOL_PROPERTY
W
SciTegic.value.DoubleValue
-60.765

@<SCITEGIC>MOL_PROPERTY
W(PB)
SciTegic.value.DoubleValue
-62.518

@<SCITEGIC>MOL_PROPERTY
W(SA)
SciTegic.value.DoubleValue
1.754

@<SCITEGIC>MOL_PROPERTY
Valence
SciTegic.value.DoubleValue
1.161

@<SCITEGIC>MOL_PROPERTY
Coulomb
SciTegic.value.DoubleValue
43.789

@<SCITEGIC>MOL_PROPERTY
VdW
SciTegic.value.DoubleValue
0.224

@<SCITEGIC>MOL_PROPERTY
VdW6
SciTegic.value.DoubleValue
-2.897

@<SCITEGIC>MOL_PROPERTY
VdW12
SciTegic.value.DoubleValue
3.121

@<SCITEGIC>MOL_PROPERTY
Bond
SciTegic.value.DoubleValue
0.100

@<SCITEGIC>MOL_PROPERTY
Angle
SciTegic.value.DoubleValue
0.500

@<SCITEGIC>MOL_PROPERTY
Pdih
SciTegic.value.DoubleValue
0.561

@<SCITEGIC>MOL_PROPERTY
Idih
SciTegic.value.DoubleValue
0.000

@<SCITEGIC>MOL_PROPERTY
Tether
SciTegic.value.DoubleValue
0.000

@<TRIPOS>MOLECULE
guest-1_confgen4.mol2 : confsearch ligand conformer 549
          17          16           1
SMALL
USER_CHARGES
 
@<TRIPOS>ATOM
       1    N1      20.501464   20.004512   23.051799 N.4        1 MOL1        -0.5891
       2    H1      19.582688   19.588581   23.224122 H          1 MOL1         0.3726
       3    H2      20.345113   20.982357   22.789399 H          1 MOL1         0.3726
       4    H3      21.002166   20.013191   23.946252 H          1 MOL1         0.3726
       5    C1      21.268692   19.250042   21.983077 C.3        1 MOL1         0.0314
       6    H4      21.465131   18.237287   22.345075 H          1 MOL1         0.0999
       7    H5      22.229520   19.757404   21.860883 H          1 MOL1         0.0999
       8    C2      20.556011   19.186925   20.615702 C.3        1 MOL1        -0.1308
       9    H6      20.137318   20.170483   20.364626 H          1 MOL1         0.1025
      10    H7      21.316311   18.979203   19.851083 H          1 MOL1         0.1025
      11    C3      19.463013   18.092858   20.510456 C.3        1 MOL1        -0.1243
      12    H8      19.908010   17.106261   20.701835 H          1 MOL1         0.1025
      13    H9      19.099045   18.065982   19.473734 H          1 MOL1         0.1025
      14    C4      18.254767   18.304064   21.450890 C.3        1 MOL1        -0.2258
      15    H10     18.525991   18.132708   22.499103 H          1 MOL1         0.1036
      16    H11     17.453165   17.595267   21.205539 H          1 MOL1         0.1036
      17    H12     17.844795   19.317590   21.351687 H          1 MOL1         0.1036
@<TRIPOS>BOND
    1     1     2    1
    2     1     3    1
    3     1     4    1
    4     1     5    1
    5     5     6    1
    6     5     7    1
    7     5     8    1
    8     8     9    1
    9     8    10    1
   10     8    11    1
   11    11    12    1
   12    11    13    1
   13    11    14    1
   14    14    15    1
   15    14    16    1
   16    14    17    1
@<TRIPOS>SUBSTRUCTURE
       1 MOL1            1 RESIDUE      1      MOL     
@<SCITEGIC>MOL_PROPERTY
VConf Rank
SciTegic.value.IntegerValue
549

@<SCITEGIC>MOL_PROPERTY
Conf_Id
SciTegic.value.IntegerValue
19

@<SCITEGIC>MOL_PROPERTY
Delta U+W
SciTegic.value.DoubleValue
2.662

@<SCITEGIC>MOL_PROPERTY
U+W
SciTegic.value.DoubleValue
-13.203

@<SCITEGIC>MOL_PROPERTY
Grad RMS
SciTegic.value.DoubleValue
0.000000

@<SCITEGIC>MOL_PROPERTY
U
SciTegic.value.DoubleValue
47.423

@<SCITEGIC>MOL_PROPERTY
W
SciTegic.value.DoubleValue
-60.626

@<SCITEGIC>MOL_PROPERTY
W(PB)
SciTegic.value.DoubleValue
-62.328

@<SCITEGIC>MOL_PROPERTY
W(SA)
SciTegic.value.DoubleValue
1.702

@<SCITEGIC>MOL_PROPERTY
Valence
SciTegic.value.DoubleValue
2.414

@<SCITEGIC>MOL_PROPERTY
Coulomb
SciTegic.value.DoubleValue
44.831

@<SCITEGIC>MOL_PROPERTY
VdW
SciTegic.value.DoubleValue
0.178

@<SCITEGIC>MOL_PROPERTY
VdW6
SciTegic.value.DoubleValue
-3.743

@<SCITEGIC>MOL_PROPERTY
VdW12
SciTegic.value.DoubleValue
3.921

@<SCITEGIC>MOL_PROPERTY
Bond
SciTegic.value.DoubleValue
0.138

@<SCITEGIC>MOL_PROPERTY
Angle
SciTegic.value.DoubleValue
0.941

@<SCITEGIC>MOL_PROPERTY
Pdih
SciTegic.value.DoubleValue
1.335

@<SCITEGIC>MOL_PROPERTY
Idih
SciTegic.value.DoubleValue
0.000

@<SCITEGIC>MOL_PROPERTY
Tether
SciTegic.value.DoubleValue
0.000

@<TRIPOS>MOLECULE
guest-1_confgen4.mol2 : confsearch ligand conformer 550
          17          16           1
SMALL
USER_CHARGES
 
@<TRIPOS>ATOM
       1    N1      19.566463   17.811649   20.260949 N.4        1 MOL1        -0.5891
       2    H1      19.681804   17.573681   19.270549 H          1 MOL1         0.3726
       3    H2      18.903087   17.136765   20.653307 H          1 MOL1         0.3726
       4    H3      20.467376   17.648376   20.717612 H          1 MOL1         0.3726
       5    C1      19.092848   19.240398   20.446428 C.3        1 MOL1         0.0314
       6    H4      18.131030   19.327570   19.933745 H          1 MOL1         0.0999
       7    H5      19.801631   19.909197   19.950810 H          1 MOL1         0.0999
       8    C2      18.917411   19.664384   21.919883 C.3        1 MOL1        -0.1308
       9    H6      18.236692   20.525773   21.941708 H          1 MOL1         0.1025
      10    H7      18.412997   18.867643   22.482468 H          1 MOL1         0.1025
      11    C3      20.231521   20.077388   22.630688 C.3        1 MOL1        -0.1243
      12    H8      19.979280   20.457967   23.630450 H          1 MOL1         0.1025
      13    H9      20.693930   20.917480   22.093618 H          1 MOL1         0.1025
      14    C4      21.261237   18.935038   22.784313 C.3        1 MOL1        -0.2258
      15    H10     20.803770   18.043668   23.233016 H          1 MOL1         0.1036
      16    H11     22.085246   19.250813   23.437346 H          1 MOL1         0.1036
      17    H12     21.702888   18.659056   21.819711 H          1 MOL1         0.1036
@<TRIPOS>BOND
    1     1     2    1
    2     1     3    1
    3     1     4    1
    4     1     5    1
    5     5     6    1
    6     5     7    1
    7     5     8    1
    8     8     9    1
    9     8    10    1
   10     8    11    1
   11    11    12    1
   12    11    13    1
   13    11    14    1
   14    14    15    1
   15    14    16    1
   16    14    17    1
@<TRIPOS>SUBSTRUCTURE
       1 MOL1            1 RESIDUE      1      MOL     
@<SCITEGIC>MOL_PROPERTY
VConf Rank
SciTegic.value.IntegerValue
550

@<SCITEGIC>MOL_PROPERTY
Conf_Id
SciTegic.value.IntegerValue
44

@<SCITEGIC>MOL_PROPERTY
Delta U+W
SciTegic.value.DoubleValue
2.712

@<SCITEGIC>MOL_PROPERTY
U+W
SciTegic.value.DoubleValue
-13.153

@<SCITEGIC>MOL_PROPERTY
Grad RMS
SciTegic.value.DoubleValue
0.000000

@<SCITEGIC>MOL_PROPERTY
U
SciTegic.value.DoubleValue
47.423

@<SCITEGIC>MOL_PROPERTY
W
SciTegic.value.DoubleValue
-60.576

@<SCITEGIC>MOL_PROPERTY
W(PB)
SciTegic.value.DoubleValue
-62.262

@<SCITEGIC>MOL_PROPERTY
W(SA)
SciTegic.value.DoubleValue
1.687

@<SCITEGIC>MOL_PROPERTY
Valence
SciTegic.value.DoubleValue
2.414

@<SCITEGIC>MOL_PROPERTY
Coulomb
SciTegic.value.DoubleValue
44.831

@<SCITEGIC>MOL_PROPERTY
VdW
SciTegic.value.DoubleValue
0.178

@<SCITEGIC>MOL_PROPERTY
VdW6
SciTegic.value.DoubleValue
-3.743

@<SCITEGIC>MOL_PROPERTY
VdW12
SciTegic.value.DoubleValue
3.922

@<SCITEGIC>MOL_PROPERTY
Bond
SciTegic.value.DoubleValue
0.138

@<SCITEGIC>MOL_PROPERTY
Angle
SciTegic.value.DoubleValue
0.941

@<SCITEGIC>MOL_PROPERTY
Pdih
SciTegic.value.DoubleValue
1.335

@<SCITEGIC>MOL_PROPERTY
Idih
SciTegic.value.DoubleValue
0.000

@<SCITEGIC>MOL_PROPERTY
Tether
SciTegic.value.DoubleValue
0.000

@<TRIPOS>MOLECULE
guest-1_confgen4.mol2 : confsearch ligand conformer 551
          17          16           1
SMALL
USER_CHARGES
 
@<TRIPOS>ATOM
       1    N1      19.059285   20.797261   21.937937 N.4        1 MOL1        -0.5891
       2    H1      19.806018   20.953806   21.255054 H          1 MOL1         0.3726
       3    H2      19.370535   21.203242   22.825451 H          1 MOL1         0.3726
       4    H3      18.250360   21.344972   21.627580 H          1 MOL1         0.3726
       5    C1      18.723936   19.324741   22.076080 C.3        1 MOL1         0.0314
       6    H4      18.372639   18.964108   21.105854 H          1 MOL1         0.0999
       7    H5      17.898922   19.236524   22.788195 H          1 MOL1         0.0999
       8    C2      19.907267   18.458877   22.555588 C.3        1 MOL1        -0.1308
       9    H6      20.226479   18.802796   23.548349 H          1 MOL1         0.1025
      10    H7      19.556360   17.426813   22.687923 H          1 MOL1         0.1025
      11    C3      21.122103   18.464413   21.594496 C.3        1 MOL1        -0.1243
      12    H8      21.915477   17.836404   22.023526 H          1 MOL1         0.1025
      13    H9      21.542425   19.476774   21.523028 H          1 MOL1         0.1025
      14    C4      20.777988   17.942552   20.180620 C.3        1 MOL1        -0.2258
      15    H10     20.356389   16.929979   20.225532 H          1 MOL1         0.1036
      16    H11     21.679174   17.902337   19.555148 H          1 MOL1         0.1036
      17    H12     20.053286   18.593163   19.675189 H          1 MOL1         0.1036
@<TRIPOS>BOND
    1     1     2    1
    2     1     3    1
    3     1     4    1
    4     1     5    1
    5     5     6    1
    6     5     7    1
    7     5     8    1
    8     8     9    1
    9     8    10    1
   10     8    11    1
   11    11    12    1
   12    11    13    1
   13    11    14    1
   14    14    15    1
   15    14    16    1
   16    14    17    1
@<TRIPOS>SUBSTRUCTURE
       1 MOL1            1 RESIDUE      1      MOL     
@<SCITEGIC>MOL_PROPERTY
VConf Rank
SciTegic.value.IntegerValue
551

@<SCITEGIC>MOL_PROPERTY
Conf_Id
SciTegic.value.IntegerValue
1

@<SCITEGIC>MOL_PROPERTY
Delta U+W
SciTegic.value.DoubleValue
0.685

@<SCITEGIC>MOL_PROPERTY
U+W
SciTegic.value.DoubleValue
-15.179

@<SCITEGIC>MOL_PROPERTY
Grad RMS
SciTegic.value.DoubleValue
0.000000

@<SCITEGIC>MOL_PROPERTY
U
SciTegic.value.DoubleValue
45.697

@<SCITEGIC>MOL_PROPERTY
W
SciTegic.value.DoubleValue
-60.876

@<SCITEGIC>MOL_PROPERTY
W(PB)
SciTegic.value.DoubleValue
-62.586

@<SCITEGIC>MOL_PROPERTY
W(SA)
SciTegic.value.DoubleValue
1.710

@<SCITEGIC>MOL_PROPERTY
Valence
SciTegic.value.DoubleValue
1.263

@<SCITEGIC>MOL_PROPERTY
Coulomb
SciTegic.value.DoubleValue
44.179

@<SCITEGIC>MOL_PROPERTY
VdW
SciTegic.value.DoubleValue
0.255

@<SCITEGIC>MOL_PROPERTY
VdW6
SciTegic.value.DoubleValue
-3.552

@<SCITEGIC>MOL_PROPERTY
VdW12
SciTegic.value.DoubleValue
3.807

@<SCITEGIC>MOL_PROPERTY
Bond
SciTegic.value.DoubleValue
0.125

@<SCITEGIC>MOL_PROPERTY
Angle
SciTegic.value.DoubleValue
0.616

@<SCITEGIC>MOL_PROPERTY
Pdih
SciTegic.value.DoubleValue
0.521

@<SCITEGIC>MOL_PROPERTY
Idih
SciTegic.value.DoubleValue
0.000

@<SCITEGIC>MOL_PROPERTY
Tether
SciTegic.value.DoubleValue
0.000

@<TRIPOS>MOLECULE
guest-1_confgen4.mol2 : confsearch ligand conformer 552
          17          16           1
SMALL
USER_CHARGES
 
@<TRIPOS>ATOM
       1    N1      18.964847   17.440460   22.303558 N.4        1 MOL1        -0.5891
       2    H1      17.983539   17.653491   22.506115 H          1 MOL1         0.3726
       3    H2      19.522365   17.820821   23.073590 H          1 MOL1         0.3726
       4    H3      19.061535   16.420640   22.339427 H          1 MOL1         0.3726
       5    C1      19.400730   18.001544   20.963764 C.3        1 MOL1         0.0314
       6    H4      18.791991   17.526233   20.189778 H          1 MOL1         0.0999
       7    H5      20.442290   17.714302   20.798081 H          1 MOL1         0.0999
       8    C2      19.260036   19.533948   20.854844 C.3        1 MOL1        -0.1308
       9    H6      19.535212   19.840452   19.836935 H          1 MOL1         0.1025
      10    H7      18.204581   19.808897   20.981986 H          1 MOL1         0.1025
      11    C3      20.122286   20.319792   21.873927 C.3        1 MOL1        -0.1243
      12    H8      19.796722   20.092979   22.898241 H          1 MOL1         0.1025
      13    H9      19.946460   21.395244   21.731124 H          1 MOL1         0.1025
      14    C4      21.635287   20.035349   21.733506 C.3        1 MOL1        -0.2258
      15    H10     22.210714   20.660466   22.428547 H          1 MOL1         0.1036
      16    H11     21.985546   20.255824   20.716757 H          1 MOL1         0.1036
      17    H12     21.871845   18.987595   21.957562 H          1 MOL1         0.1036
@<TRIPOS>BOND
    1     1     2    1
    2     1     3    1
    3     1     4    1
    4     1     5    1
    5     5     6    1
    6     5     7    1
    7     5     8    1
    8     8     9    1
    9     8    10    1
   10     8    11    1
   11    11    12    1
   12    11    13    1
   13    11    14    1
   14    14    15    1
   15    14    16    1
   16    14    17    1
@<TRIPOS>SUBSTRUCTURE
       1 MOL1            1 RESIDUE      1      MOL     
@<SCITEGIC>MOL_PROPERTY
VConf Rank
SciTegic.value.IntegerValue
552

@<SCITEGIC>MOL_PROPERTY
Conf_Id
SciTegic.value.IntegerValue
43

@<SCITEGIC>MOL_PROPERTY
Delta U+W
SciTegic.value.DoubleValue
0.642

@<SCITEGIC>MOL_PROPERTY
U+W
SciTegic.value.DoubleValue
-15.222

@<SCITEGIC>MOL_PROPERTY
Grad RMS
SciTegic.value.DoubleValue
0.000000

@<SCITEGIC>MOL_PROPERTY
U
SciTegic.value.DoubleValue
45.697

@<SCITEGIC>MOL_PROPERTY
W
SciTegic.value.DoubleValue
-60.919

@<SCITEGIC>MOL_PROPERTY
W(PB)
SciTegic.value.DoubleValue
-62.631

@<SCITEGIC>MOL_PROPERTY
W(SA)
SciTegic.value.DoubleValue
1.712

@<SCITEGIC>MOL_PROPERTY
Valence
SciTegic.value.DoubleValue
1.262

@<SCITEGIC>MOL_PROPERTY
Coulomb
SciTegic.value.DoubleValue
44.179

@<SCITEGIC>MOL_PROPERTY
VdW
SciTegic.value.DoubleValue
0.255

@<SCITEGIC>MOL_PROPERTY
VdW6
SciTegic.value.DoubleValue
-3.552

@<SCITEGIC>MOL_PROPERTY
VdW12
SciTegic.value.DoubleValue
3.807

@<SCITEGIC>MOL_PROPERTY
Bond
SciTegic.value.DoubleValue
0.125

@<SCITEGIC>MOL_PROPERTY
Angle
SciTegic.value.DoubleValue
0.616

@<SCITEGIC>MOL_PROPERTY
Pdih
SciTegic.value.DoubleValue
0.521

@<SCITEGIC>MOL_PROPERTY
Idih
SciTegic.value.DoubleValue
0.000

@<SCITEGIC>MOL_PROPERTY
Tether
SciTegic.value.DoubleValue
0.000

@<TRIPOS>MOLECULE
guest-1_confgen4.mol2 : confsearch ligand conformer 553
          17          16           1
SMALL
USER_CHARGES
 
@<TRIPOS>ATOM
       1    N1      18.743881   18.568841   23.810516 N.4        1 MOL1        -0.5891
       2    H1      19.575898   18.480091   24.401757 H          1 MOL1         0.3726
       3    H2      18.434060   17.619165   23.582866 H          1 MOL1         0.3726
       4    H3      18.010884   18.988237   24.391663 H          1 MOL1         0.3726
       5    C1      19.016163   19.390925   22.566572 C.3        1 MOL1         0.0314
       6    H4      19.310475   20.395192   22.883354 H          1 MOL1         0.0999
       7    H5      18.082613   19.469457   22.002797 H          1 MOL1         0.0999
       8    C2      20.113197   18.789003   21.669650 C.3        1 MOL1        -0.1308
       9    H6      21.044893   18.697309   22.243693 H          1 MOL1         0.1025
      10    H7      19.821193   17.774829   21.366048 H          1 MOL1         0.1025
      11    C3      20.359085   19.656125   20.415394 C.3        1 MOL1        -0.1243
      12    H8      20.648193   20.672377   20.718669 H          1 MOL1         0.1025
      13    H9      19.426018   19.750966   19.842056 H          1 MOL1         0.1025
      14    C4      21.458441   19.058518   19.510829 C.3        1 MOL1        -0.2258
      15    H10     21.617875   19.688698   18.626237 H          1 MOL1         0.1036
      16    H11     21.181866   18.054641   19.163059 H          1 MOL1         0.1036
      17    H12     22.413674   18.983272   20.046623 H          1 MOL1         0.1036
@<TRIPOS>BOND
    1     1     2    1
    2     1     3    1
    3     1     4    1
    4     1     5    1
    5     5     6    1
    6     5     7    1
    7     5     8    1
    8     8     9    1
    9     8    10    1
   10     8    11    1
   11    11    12    1
   12    11    13    1
   13    11    14    1
   14    14    15    1
   15    14    16    1
   16    14    17    1
@<TRIPOS>SUBSTRUCTURE
       1 MOL1            1 RESIDUE      1      MOL     
@<SCITEGIC>MOL_PROPERTY
VConf Rank
SciTegic.value.IntegerValue
553

@<SCITEGIC>MOL_PROPERTY
Conf_Id
SciTegic.value.IntegerValue
7

@<SCITEGIC>MOL_PROPERTY
Delta U+W
SciTegic.value.DoubleValue
0.000

@<SCITEGIC>MOL_PROPERTY
U+W
SciTegic.value.DoubleValue
-15.865

@<SCITEGIC>MOL_PROPERTY
Grad RMS
SciTegic.value.DoubleValue
0.000000

@<SCITEGIC>MOL_PROPERTY
U
SciTegic.value.DoubleValue
44.664

@<SCITEGIC>MOL_PROPERTY
W
SciTegic.value.DoubleValue
-60.529

@<SCITEGIC>MOL_PROPERTY
W(PB)
SciTegic.value.DoubleValue
-62.309

@<SCITEGIC>MOL_PROPERTY
W(SA)
SciTegic.value.DoubleValue
1.780

@<SCITEGIC>MOL_PROPERTY
Valence
SciTegic.value.DoubleValue
0.872

@<SCITEGIC>MOL_PROPERTY
Coulomb
SciTegic.value.DoubleValue
43.648

@<SCITEGIC>MOL_PROPERTY
VdW
SciTegic.value.DoubleValue
0.144

@<SCITEGIC>MOL_PROPERTY
VdW6
SciTegic.value.DoubleValue
-2.370

@<SCITEGIC>MOL_PROPERTY
VdW12
SciTegic.value.DoubleValue
2.515

@<SCITEGIC>MOL_PROPERTY
Bond
SciTegic.value.DoubleValue
0.080

@<SCITEGIC>MOL_PROPERTY
Angle
SciTegic.value.DoubleValue
0.376

@<SCITEGIC>MOL_PROPERTY
Pdih
SciTegic.value.DoubleValue
0.416

@<SCITEGIC>MOL_PROPERTY
Idih
SciTegic.value.DoubleValue
0.000

@<SCITEGIC>MOL_PROPERTY
Tether
SciTegic.value.DoubleValue
0.000

@<TRIPOS>MOLECULE
guest-1_confgen4.mol2 : confsearch ligand conformer 554
          17          16           1
SMALL
USER_CHARGES
 
@<TRIPOS>ATOM
       1    N1      20.363402   16.722193   21.564571 N.4        1 MOL1        -0.5891
       2    H1      19.759755   16.294277   20.855948 H          1 MOL1         0.3726
       3    H2      19.967289   16.485925   22.479404 H          1 MOL1         0.3726
       4    H3      21.271546   16.250543   21.504038 H          1 MOL1         0.3726
       5    C1      20.492089   18.220022   21.371428 C.3        1 MOL1         0.0314
       6    H4      20.946769   18.396756   20.392940 H          1 MOL1         0.0999
       7    H5      21.171131   18.600478   22.138887 H          1 MOL1         0.0999
       8    C2      19.143819   18.960852   21.456857 C.3        1 MOL1        -0.1308
       9    H6      18.456213   18.543994   20.708991 H          1 MOL1         0.1025
      10    H7      18.686378   18.781967   22.439015 H          1 MOL1         0.1025
      11    C3      19.283356   20.482712   21.219201 C.3        1 MOL1        -0.1243
      12    H8      18.282272   20.936341   21.213422 H          1 MOL1         0.1025
      13    H9      19.710377   20.664310   20.222779 H          1 MOL1         0.1025
      14    C4      20.148744   21.184769   22.290731 C.3        1 MOL1        -0.2258
      15    H10     19.746474   21.013686   23.297724 H          1 MOL1         0.1036
      16    H11     20.170138   22.268703   22.118582 H          1 MOL1         0.1036
      17    H12     21.185631   20.826246   22.270282 H          1 MOL1         0.1036
@<TRIPOS>BOND
    1     1     2    1
    2     1     3    1
    3     1     4    1
    4     1     5    1
    5     5     6    1
    6     5     7    1
    7     5     8    1
    8     8     9    1
    9     8    10    1
   10     8    11    1
   11    11    12    1
   12    11    13    1
   13    11    14    1
   14    14    15    1
   15    14    16    1
   16    14    17    1
@<TRIPOS>SUBSTRUCTURE
       1 MOL1            1 RESIDUE      1      MOL     
@<SCITEGIC>MOL_PROPERTY
VConf Rank
SciTegic.value.IntegerValue
554

@<SCITEGIC>MOL_PROPERTY
Conf_Id
SciTegic.value.IntegerValue
36

@<SCITEGIC>MOL_PROPERTY
Delta U+W
SciTegic.value.DoubleValue
0.275

@<SCITEGIC>MOL_PROPERTY
U+W
SciTegic.value.DoubleValue
-15.590

@<SCITEGIC>MOL_PROPERTY
Grad RMS
SciTegic.value.DoubleValue
0.000000

@<SCITEGIC>MOL_PROPERTY
U
SciTegic.value.DoubleValue
45.174

@<SCITEGIC>MOL_PROPERTY
W
SciTegic.value.DoubleValue
-60.765

@<SCITEGIC>MOL_PROPERTY
W(PB)
SciTegic.value.DoubleValue
-62.518

@<SCITEGIC>MOL_PROPERTY
W(SA)
SciTegic.value.DoubleValue
1.754

@<SCITEGIC>MOL_PROPERTY
Valence
SciTegic.value.DoubleValue
1.161

@<SCITEGIC>MOL_PROPERTY
Coulomb
SciTegic.value.DoubleValue
43.789

@<SCITEGIC>MOL_PROPERTY
VdW
SciTegic.value.DoubleValue
0.224

@<SCITEGIC>MOL_PROPERTY
VdW6
SciTegic.value.DoubleValue
-2.897

@<SCITEGIC>MOL_PROPERTY
VdW12
SciTegic.value.DoubleValue
3.121

@<SCITEGIC>MOL_PROPERTY
Bond
SciTegic.value.DoubleValue
0.100

@<SCITEGIC>MOL_PROPERTY
Angle
SciTegic.value.DoubleValue
0.500

@<SCITEGIC>MOL_PROPERTY
Pdih
SciTegic.value.DoubleValue
0.561

@<SCITEGIC>MOL_PROPERTY
Idih
SciTegic.value.DoubleValue
0.000

@<SCITEGIC>MOL_PROPERTY
Tether
SciTegic.value.DoubleValue
0.000

@<TRIPOS>MOLECULE
guest-1_confgen4.mol2 : confsearch ligand conformer 555
          17          16           1
SMALL
USER_CHARGES
 
@<TRIPOS>ATOM
       1    N1      21.593698   19.234325   20.792702 N.4        1 MOL1        -0.5891
       2    H1      21.107350   18.422782   20.403204 H          1 MOL1         0.3726
       3    H2      22.288713   18.879204   21.456270 H          1 MOL1         0.3726
       4    H3      22.112558   19.673122   20.025197 H          1 MOL1         0.3726
       5    C1      20.631123   20.204506   21.450142 C.3        1 MOL1         0.0314
       6    H4      19.959339   20.601180   20.684206 H          1 MOL1         0.0999
       7    H5      21.228430   21.034117   21.838094 H          1 MOL1         0.0999
       8    C2      19.806410   19.596117   22.603972 C.3        1 MOL1        -0.1308
       9    H6      20.453426   18.983683   23.245863 H          1 MOL1         0.1025
      10    H7      19.452156   20.422512   23.234387 H          1 MOL1         0.1025
      11    C3      18.569738   18.779684   22.149239 C.3        1 MOL1        -0.1243
      12    H8      17.899171   19.421531   21.560686 H          1 MOL1         0.1025
      13    H9      18.001635   18.485511   23.042945 H          1 MOL1         0.1025
      14    C4      18.906683   17.507125   21.339335 C.3        1 MOL1        -0.2258
      15    H10     19.287690   17.754299   20.341631 H          1 MOL1         0.1036
      16    H11     18.005471   16.896428   21.197832 H          1 MOL1         0.1036
      17    H12     19.649608   16.888591   21.859557 H          1 MOL1         0.1036
@<TRIPOS>BOND
    1     1     2    1
    2     1     3    1
    3     1     4    1
    4     1     5    1
    5     5     6    1
    6     5     7    1
    7     5     8    1
    8     8     9    1
    9     8    10    1
   10     8    11    1
   11    11    12    1
   12    11    13    1
   13    11    14    1
   14    14    15    1
   15    14    16    1
   16    14    17    1
@<TRIPOS>SUBSTRUCTURE
       1 MOL1            1 RESIDUE      1      MOL     
@<SCITEGIC>MOL_PROPERTY
VConf Rank
SciTegic.value.IntegerValue
555

@<SCITEGIC>MOL_PROPERTY
Conf_Id
SciTegic.value.IntegerValue
19

@<SCITEGIC>MOL_PROPERTY
Delta U+W
SciTegic.value.DoubleValue
2.662

@<SCITEGIC>MOL_PROPERTY
U+W
SciTegic.value.DoubleValue
-13.203

@<SCITEGIC>MOL_PROPERTY
Grad RMS
SciTegic.value.DoubleValue
0.000000

@<SCITEGIC>MOL_PROPERTY
U
SciTegic.value.DoubleValue
47.423

@<SCITEGIC>MOL_PROPERTY
W
SciTegic.value.DoubleValue
-60.626

@<SCITEGIC>MOL_PROPERTY
W(PB)
SciTegic.value.DoubleValue
-62.328

@<SCITEGIC>MOL_PROPERTY
W(SA)
SciTegic.value.DoubleValue
1.702

@<SCITEGIC>MOL_PROPERTY
Valence
SciTegic.value.DoubleValue
2.414

@<SCITEGIC>MOL_PROPERTY
Coulomb
SciTegic.value.DoubleValue
44.831

@<SCITEGIC>MOL_PROPERTY
VdW
SciTegic.value.DoubleValue
0.178

@<SCITEGIC>MOL_PROPERTY
VdW6
SciTegic.value.DoubleValue
-3.743

@<SCITEGIC>MOL_PROPERTY
VdW12
SciTegic.value.DoubleValue
3.921

@<SCITEGIC>MOL_PROPERTY
Bond
SciTegic.value.DoubleValue
0.138

@<SCITEGIC>MOL_PROPERTY
Angle
SciTegic.value.DoubleValue
0.941

@<SCITEGIC>MOL_PROPERTY
Pdih
SciTegic.value.DoubleValue
1.335

@<SCITEGIC>MOL_PROPERTY
Idih
SciTegic.value.DoubleValue
0.000

@<SCITEGIC>MOL_PROPERTY
Tether
SciTegic.value.DoubleValue
0.000

@<TRIPOS>MOLECULE
guest-1_confgen4.mol2 : confsearch ligand conformer 556
          17          16           1
SMALL
USER_CHARGES
 
@<TRIPOS>ATOM
       1    N1      18.452487   18.400680   20.610974 N.4        1 MOL1        -0.5891
       2    H1      17.808662   18.559620   19.829276 H          1 MOL1         0.3726
       3    H2      18.086405   17.603384   21.139920 H          1 MOL1         0.3726
       4    H3      19.348028   18.110324   20.210297 H          1 MOL1         0.3726
       5    C1      18.599268   19.634366   21.480752 C.3        1 MOL1         0.0314
       6    H4      17.604768   19.873272   21.867315 H          1 MOL1         0.0999
       7    H5      18.926152   20.466792   20.851851 H          1 MOL1         0.0999
       8    C2      19.571702   19.462461   22.666683 C.3        1 MOL1        -0.1308
       9    H6      19.323824   20.225629   23.416334 H          1 MOL1         0.1025
      10    H7      19.400908   18.493950   23.155094 H          1 MOL1         0.1025
      11    C3      21.068796   19.624283   22.298951 C.3        1 MOL1        -0.1243
      12    H8      21.658550   19.588619   23.225724 H          1 MOL1         0.1025
      13    H9      21.238115   20.621676   21.869347 H          1 MOL1         0.1025
      14    C4      21.608857   18.547824   21.330215 C.3        1 MOL1        -0.2258
      15    H10     21.370939   17.536624   21.685212 H          1 MOL1         0.1036
      16    H11     22.700961   18.623381   21.248023 H          1 MOL1         0.1036
      17    H12     21.200790   18.673959   20.320635 H          1 MOL1         0.1036
@<TRIPOS>BOND
    1     1     2    1
    2     1     3    1
    3     1     4    1
    4     1     5    1
    5     5     6    1
    6     5     7    1
    7     5     8    1
    8     8     9    1
    9     8    10    1
   10     8    11    1
   11    11    12    1
   12    11    13    1
   13    11    14    1
   14    14    15    1
   15    14    16    1
   16    14    17    1
@<TRIPOS>SUBSTRUCTURE
       1 MOL1            1 RESIDUE      1      MOL     
@<SCITEGIC>MOL_PROPERTY
VConf Rank
SciTegic.value.IntegerValue
556

@<SCITEGIC>MOL_PROPERTY
Conf_Id
SciTegic.value.IntegerValue
44

@<SCITEGIC>MOL_PROPERTY
Delta U+W
SciTegic.value.DoubleValue
2.712

@<SCITEGIC>MOL_PROPERTY
U+W
SciTegic.value.DoubleValue
-13.153

@<SCITEGIC>MOL_PROPERTY
Grad RMS
SciTegic.value.DoubleValue
0.000000

@<SCITEGIC>MOL_PROPERTY
U
SciTegic.value.DoubleValue
47.423

@<SCITEGIC>MOL_PROPERTY
W
SciTegic.value.DoubleValue
-60.576

@<SCITEGIC>MOL_PROPERTY
W(PB)
SciTegic.value.DoubleValue
-62.262

@<SCITEGIC>MOL_PROPERTY
W(SA)
SciTegic.value.DoubleValue
1.687

@<SCITEGIC>MOL_PROPERTY
Valence
SciTegic.value.DoubleValue
2.414

@<SCITEGIC>MOL_PROPERTY
Coulomb
SciTegic.value.DoubleValue
44.831

@<SCITEGIC>MOL_PROPERTY
VdW
SciTegic.value.DoubleValue
0.178

@<SCITEGIC>MOL_PROPERTY
VdW6
SciTegic.value.DoubleValue
-3.743

@<SCITEGIC>MOL_PROPERTY
VdW12
SciTegic.value.DoubleValue
3.922

@<SCITEGIC>MOL_PROPERTY
Bond
SciTegic.value.DoubleValue
0.138

@<SCITEGIC>MOL_PROPERTY
Angle
SciTegic.value.DoubleValue
0.941

@<SCITEGIC>MOL_PROPERTY
Pdih
SciTegic.value.DoubleValue
1.335

@<SCITEGIC>MOL_PROPERTY
Idih
SciTegic.value.DoubleValue
0.000

@<SCITEGIC>MOL_PROPERTY
Tether
SciTegic.value.DoubleValue
0.000

@<TRIPOS>MOLECULE
guest-1_confgen4.mol2 : confsearch ligand conformer 557
          17          16           1
SMALL
USER_CHARGES
 
@<TRIPOS>ATOM
       1    N1      18.948044   18.291999   23.163090 N.4        1 MOL1        -0.5891
       2    H1      19.151499   17.510274   22.533838 H          1 MOL1         0.3726
       3    H2      17.941846   18.474746   23.103525 H          1 MOL1         0.3726
       4    H3      19.135248   17.965246   24.116429 H          1 MOL1         0.3726
       5    C1      19.767614   19.520064   22.816653 C.3        1 MOL1         0.0314
       6    H4      20.824695   19.265373   22.928528 H          1 MOL1         0.0999
       7    H5      19.528171   20.297220   23.547567 H          1 MOL1         0.0999
       8    C2      19.510179   20.059714   21.394533 C.3        1 MOL1        -0.1308
       9    H6      18.455155   20.350664   21.304967 H          1 MOL1         0.1025
      10    H7      20.093655   20.979742   21.257022 H          1 MOL1         0.1025
      11    C3      19.864792   19.058492   20.266987 C.3        1 MOL1        -0.1243
      12    H8      19.635977   19.522253   19.297206 H          1 MOL1         0.1025
      13    H9      19.223721   18.169179   20.336301 H          1 MOL1         0.1025
      14    C4      21.350533   18.631688   20.281403 C.3        1 MOL1        -0.2258
      15    H10     22.012539   19.504612   20.211968 H          1 MOL1         0.1036
      16    H11     21.571033   17.975896   19.429179 H          1 MOL1         0.1036
      17    H12     21.603942   18.081600   21.196354 H          1 MOL1         0.1036
@<TRIPOS>BOND
    1     1     2    1
    2     1     3    1
    3     1     4    1
    4     1     5    1
    5     5     6    1
    6     5     7    1
    7     5     8    1
    8     8     9    1
    9     8    10    1
   10     8    11    1
   11    11    12    1
   12    11    13    1
   13    11    14    1
   14    14    15    1
   15    14    16    1
   16    14    17    1
@<TRIPOS>SUBSTRUCTURE
       1 MOL1            1 RESIDUE      1      MOL     
@<SCITEGIC>MOL_PROPERTY
VConf Rank
SciTegic.value.IntegerValue
557

@<SCITEGIC>MOL_PROPERTY
Conf_Id
SciTegic.value.IntegerValue
1

@<SCITEGIC>MOL_PROPERTY
Delta U+W
SciTegic.value.DoubleValue
0.685

@<SCITEGIC>MOL_PROPERTY
U+W
SciTegic.value.DoubleValue
-15.179

@<SCITEGIC>MOL_PROPERTY
Grad RMS
SciTegic.value.DoubleValue
0.000000

@<SCITEGIC>MOL_PROPERTY
U
SciTegic.value.DoubleValue
45.697

@<SCITEGIC>MOL_PROPERTY
W
SciTegic.value.DoubleValue
-60.876

@<SCITEGIC>MOL_PROPERTY
W(PB)
SciTegic.value.DoubleValue
-62.586

@<SCITEGIC>MOL_PROPERTY
W(SA)
SciTegic.value.DoubleValue
1.710

@<SCITEGIC>MOL_PROPERTY
Valence
SciTegic.value.DoubleValue
1.263

@<SCITEGIC>MOL_PROPERTY
Coulomb
SciTegic.value.DoubleValue
44.179

@<SCITEGIC>MOL_PROPERTY
VdW
SciTegic.value.DoubleValue
0.255

@<SCITEGIC>MOL_PROPERTY
VdW6
SciTegic.value.DoubleValue
-3.552

@<SCITEGIC>MOL_PROPERTY
VdW12
SciTegic.value.DoubleValue
3.807

@<SCITEGIC>MOL_PROPERTY
Bond
SciTegic.value.DoubleValue
0.125

@<SCITEGIC>MOL_PROPERTY
Angle
SciTegic.value.DoubleValue
0.616

@<SCITEGIC>MOL_PROPERTY
Pdih
SciTegic.value.DoubleValue
0.521

@<SCITEGIC>MOL_PROPERTY
Idih
SciTegic.value.DoubleValue
0.000

@<SCITEGIC>MOL_PROPERTY
Tether
SciTegic.value.DoubleValue
0.000

@<TRIPOS>MOLECULE
guest-1_confgen4.mol2 : confsearch ligand conformer 558
          17          16           1
SMALL
USER_CHARGES
 
@<TRIPOS>ATOM
       1    N1      19.988348   17.416046   22.755570 N.4        1 MOL1        -0.5891
       2    H1      20.932198   17.020137   22.797761 H          1 MOL1         0.3726
       3    H2      19.579774   17.129946   21.861331 H          1 MOL1         0.3726
       4    H3      19.441516   16.961092   23.493580 H          1 MOL1         0.3726
       5    C1      20.000096   18.924556   22.910867 C.3        1 MOL1         0.0314
       6    H4      20.411986   19.154537   23.897271 H          1 MOL1         0.0999
       7    H5      18.965485   19.276395   22.886492 H          1 MOL1         0.0999
       8    C2      20.823739   19.655427   21.830422 C.3        1 MOL1        -0.1308
       9    H6      20.828644   20.729417   22.059167 H          1 MOL1         0.1025
      10    H7      21.869395   19.325541   21.889806 H          1 MOL1         0.1025
      11    C3      20.299253   19.444313   20.388235 C.3        1 MOL1        -0.1243
      12    H8      20.374069   18.384121   20.110655 H          1 MOL1         0.1025
      13    H9      20.952958   19.987029   19.691074 H          1 MOL1         0.1025
      14    C4      18.844882   19.931586   20.195451 C.3        1 MOL1        -0.2258
      15    H10     18.538353   19.823384   19.146976 H          1 MOL1         0.1036
      16    H11     18.744488   20.990778   20.465824 H          1 MOL1         0.1036
      17    H12     18.140802   19.353734   20.807258 H          1 MOL1         0.1036
@<TRIPOS>BOND
    1     1     2    1
    2     1     3    1
    3     1     4    1
    4     1     5    1
    5     5     6    1
    6     5     7    1
    7     5     8    1
    8     8     9    1
    9     8    10    1
   10     8    11    1
   11    11    12    1
   12    11    13    1
   13    11    14    1
   14    14    15    1
   15    14    16    1
   16    14    17    1
@<TRIPOS>SUBSTRUCTURE
       1 MOL1            1 RESIDUE      1      MOL     
@<SCITEGIC>MOL_PROPERTY
VConf Rank
SciTegic.value.IntegerValue
558

@<SCITEGIC>MOL_PROPERTY
Conf_Id
SciTegic.value.IntegerValue
43

@<SCITEGIC>MOL_PROPERTY
Delta U+W
SciTegic.value.DoubleValue
0.642

@<SCITEGIC>MOL_PROPERTY
U+W
SciTegic.value.DoubleValue
-15.222

@<SCITEGIC>MOL_PROPERTY
Grad RMS
SciTegic.value.DoubleValue
0.000000

@<SCITEGIC>MOL_PROPERTY
U
SciTegic.value.DoubleValue
45.697

@<SCITEGIC>MOL_PROPERTY
W
SciTegic.value.DoubleValue
-60.919

@<SCITEGIC>MOL_PROPERTY
W(PB)
SciTegic.value.DoubleValue
-62.631

@<SCITEGIC>MOL_PROPERTY
W(SA)
SciTegic.value.DoubleValue
1.712

@<SCITEGIC>MOL_PROPERTY
Valence
SciTegic.value.DoubleValue
1.262

@<SCITEGIC>MOL_PROPERTY
Coulomb
SciTegic.value.DoubleValue
44.179

@<SCITEGIC>MOL_PROPERTY
VdW
SciTegic.value.DoubleValue
0.255

@<SCITEGIC>MOL_PROPERTY
VdW6
SciTegic.value.DoubleValue
-3.552

@<SCITEGIC>MOL_PROPERTY
VdW12
SciTegic.value.DoubleValue
3.807

@<SCITEGIC>MOL_PROPERTY
Bond
SciTegic.value.DoubleValue
0.125

@<SCITEGIC>MOL_PROPERTY
Angle
SciTegic.value.DoubleValue
0.616

@<SCITEGIC>MOL_PROPERTY
Pdih
SciTegic.value.DoubleValue
0.521

@<SCITEGIC>MOL_PROPERTY
Idih
SciTegic.value.DoubleValue
0.000

@<SCITEGIC>MOL_PROPERTY
Tether
SciTegic.value.DoubleValue
0.000

@<TRIPOS>MOLECULE
guest-1_confgen4.mol2 : confsearch ligand conformer 559
          17          16           1
SMALL
USER_CHARGES
 
@<TRIPOS>ATOM
       1    N1      17.864322   20.146588   22.618731 N.4        1 MOL1        -0.5891
       2    H1      17.208143   19.386695   22.414555 H          1 MOL1         0.3726
       3    H2      17.725603   20.864612   21.901169 H          1 MOL1         0.3726
       4    H3      17.571957   20.558780   23.510655 H          1 MOL1         0.3726
       5    C1      19.299221   19.660594   22.665953 C.3        1 MOL1         0.0314
       6    H4      19.379764   18.923662   23.469674 H          1 MOL1         0.0999
       7    H5      19.936203   20.512898   22.917663 H          1 MOL1         0.0999
       8    C2      19.771790   19.034925   21.341009 C.3        1 MOL1        -0.1308
       9    H6      19.120396   18.189100   21.083605 H          1 MOL1         0.1025
      10    H7      19.675062   19.772904   20.533530 H          1 MOL1         0.1025
      11    C3      21.236550   18.553560   21.432029 C.3        1 MOL1        -0.1243
      12    H8      21.334684   17.817278   22.242327 H          1 MOL1         0.1025
      13    H9      21.888683   19.399150   21.692848 H          1 MOL1         0.1025
      14    C4      21.717580   17.924652   20.106495 C.3        1 MOL1        -0.2258
      15    H10     22.759390   17.589399   20.191848 H          1 MOL1         0.1036
      16    H11     21.663740   18.648587   19.282949 H          1 MOL1         0.1036
      17    H12     21.105321   17.054261   19.836741 H          1 MOL1         0.1036
@<TRIPOS>BOND
    1     1     2    1
    2     1     3    1
    3     1     4    1
    4     1     5    1
    5     5     6    1
    6     5     7    1
    7     5     8    1
    8     8     9    1
    9     8    10    1
   10     8    11    1
   11    11    12    1
   12    11    13    1
   13    11    14    1
   14    14    15    1
   15    14    16    1
   16    14    17    1
@<TRIPOS>SUBSTRUCTURE
       1 MOL1            1 RESIDUE      1      MOL     
@<SCITEGIC>MOL_PROPERTY
VConf Rank
SciTegic.value.IntegerValue
559

@<SCITEGIC>MOL_PROPERTY
Conf_Id
SciTegic.value.IntegerValue
7

@<SCITEGIC>MOL_PROPERTY
Delta U+W
SciTegic.value.DoubleValue
0.000

@<SCITEGIC>MOL_PROPERTY
U+W
SciTegic.value.DoubleValue
-15.865

@<SCITEGIC>MOL_PROPERTY
Grad RMS
SciTegic.value.DoubleValue
0.000000

@<SCITEGIC>MOL_PROPERTY
U
SciTegic.value.DoubleValue
44.664

@<SCITEGIC>MOL_PROPERTY
W
SciTegic.value.DoubleValue
-60.529

@<SCITEGIC>MOL_PROPERTY
W(PB)
SciTegic.value.DoubleValue
-62.309

@<SCITEGIC>MOL_PROPERTY
W(SA)
SciTegic.value.DoubleValue
1.780

@<SCITEGIC>MOL_PROPERTY
Valence
SciTegic.value.DoubleValue
0.872

@<SCITEGIC>MOL_PROPERTY
Coulomb
SciTegic.value.DoubleValue
43.648

@<SCITEGIC>MOL_PROPERTY
VdW
SciTegic.value.DoubleValue
0.144

@<SCITEGIC>MOL_PROPERTY
VdW6
SciTegic.value.DoubleValue
-2.370

@<SCITEGIC>MOL_PROPERTY
VdW12
SciTegic.value.DoubleValue
2.515

@<SCITEGIC>MOL_PROPERTY
Bond
SciTegic.value.DoubleValue
0.080

@<SCITEGIC>MOL_PROPERTY
Angle
SciTegic.value.DoubleValue
0.376

@<SCITEGIC>MOL_PROPERTY
Pdih
SciTegic.value.DoubleValue
0.416

@<SCITEGIC>MOL_PROPERTY
Idih
SciTegic.value.DoubleValue
0.000

@<SCITEGIC>MOL_PROPERTY
Tether
SciTegic.value.DoubleValue
0.000

@<TRIPOS>MOLECULE
guest-1_confgen4.mol2 : confsearch ligand conformer 560
          17          16           1
SMALL
USER_CHARGES
 
@<TRIPOS>ATOM
       1    N1      19.060236   21.341991   21.448009 N.4        1 MOL1        -0.5891
       2    H1      18.039063   21.305903   21.522512 H          1 MOL1         0.3726
       3    H2      19.284223   21.503254   20.461363 H          1 MOL1         0.3726
       4    H3      19.365421   22.175225   21.961260 H          1 MOL1         0.3726
       5    C1      19.713262   20.081747   21.979702 C.3        1 MOL1         0.0314
       6    H4      19.457615   19.989641   23.038744 H          1 MOL1         0.0999
       7    H5      20.796340   20.204501   21.897769 H          1 MOL1         0.0999
       8    C2      19.276215   18.808983   21.229354 C.3        1 MOL1        -0.1308
       9    H6      18.183330   18.716655   21.283711 H          1 MOL1         0.1025
      10    H7      19.531476   18.902209   20.165381 H          1 MOL1         0.1025
      11    C3      19.918946   17.526041   21.806383 C.3        1 MOL1        -0.1243
      12    H8      19.505850   16.652927   21.281975 H          1 MOL1         0.1025
      13    H9      19.637073   17.413545   22.862828 H          1 MOL1         0.1025
      14    C4      21.459267   17.510429   21.675524 C.3        1 MOL1        -0.2258
      15    H10     21.768045   17.627472   20.628584 H          1 MOL1         0.1036
      16    H11     21.866915   16.558705   22.040285 H          1 MOL1         0.1036
      17    H12     21.922104   18.314546   22.261415 H          1 MOL1         0.1036
@<TRIPOS>BOND
    1     1     2    1
    2     1     3    1
    3     1     4    1
    4     1     5    1
    5     5     6    1
    6     5     7    1
    7     5     8    1
    8     8     9    1
    9     8    10    1
   10     8    11    1
   11    11    12    1
   12    11    13    1
   13    11    14    1
   14    14    15    1
   15    14    16    1
   16    14    17    1
@<TRIPOS>SUBSTRUCTURE
       1 MOL1            1 RESIDUE      1      MOL     
@<SCITEGIC>MOL_PROPERTY
VConf Rank
SciTegic.value.IntegerValue
560

@<SCITEGIC>MOL_PROPERTY
Conf_Id
SciTegic.value.IntegerValue
36

@<SCITEGIC>MOL_PROPERTY
Delta U+W
SciTegic.value.DoubleValue
0.275

@<SCITEGIC>MOL_PROPERTY
U+W
SciTegic.value.DoubleValue
-15.590

@<SCITEGIC>MOL_PROPERTY
Grad RMS
SciTegic.value.DoubleValue
0.000000

@<SCITEGIC>MOL_PROPERTY
U
SciTegic.value.DoubleValue
45.174

@<SCITEGIC>MOL_PROPERTY
W
SciTegic.value.DoubleValue
-60.765

@<SCITEGIC>MOL_PROPERTY
W(PB)
SciTegic.value.DoubleValue
-62.518

@<SCITEGIC>MOL_PROPERTY
W(SA)
SciTegic.value.DoubleValue
1.754

@<SCITEGIC>MOL_PROPERTY
Valence
SciTegic.value.DoubleValue
1.161

@<SCITEGIC>MOL_PROPERTY
Coulomb
SciTegic.value.DoubleValue
43.789

@<SCITEGIC>MOL_PROPERTY
VdW
SciTegic.value.DoubleValue
0.224

@<SCITEGIC>MOL_PROPERTY
VdW6
SciTegic.value.DoubleValue
-2.897

@<SCITEGIC>MOL_PROPERTY
VdW12
SciTegic.value.DoubleValue
3.121

@<SCITEGIC>MOL_PROPERTY
Bond
SciTegic.value.DoubleValue
0.100

@<SCITEGIC>MOL_PROPERTY
Angle
SciTegic.value.DoubleValue
0.500

@<SCITEGIC>MOL_PROPERTY
Pdih
SciTegic.value.DoubleValue
0.561

@<SCITEGIC>MOL_PROPERTY
Idih
SciTegic.value.DoubleValue
0.000

@<SCITEGIC>MOL_PROPERTY
Tether
SciTegic.value.DoubleValue
0.000

@<TRIPOS>MOLECULE
guest-1_confgen4.mol2 : confsearch ligand conformer 561
          17          16           1
SMALL
USER_CHARGES
 
@<TRIPOS>ATOM
       1    N1      19.630315   20.692217   22.274926 N.4        1 MOL1        -0.5891
       2    H1      19.530394   20.671304   21.256878 H          1 MOL1         0.3726
       3    H2      20.553352   21.086956   22.479039 H          1 MOL1         0.3726
       4    H3      18.936968   21.356767   22.633348 H          1 MOL1         0.3726
       5    C1      19.459214   19.314373   22.885092 C.3        1 MOL1         0.0314
       6    H4      18.437982   18.973658   22.694565 H          1 MOL1         0.0999
       7    H5      19.582070   19.425741   23.965852 H          1 MOL1         0.0999
       8    C2      20.465117   18.263230   22.370436 C.3        1 MOL1        -0.1308
       9    H6      21.473146   18.696699   22.329069 H          1 MOL1         0.1025
      10    H7      20.514826   17.455658   23.112867 H          1 MOL1         0.1025
      11    C3      20.093028   17.632365   21.004324 C.3        1 MOL1        -0.1243
      12    H8      19.109544   17.147075   21.076949 H          1 MOL1         0.1025
      13    H9      20.812152   16.830310   20.786244 H          1 MOL1         0.1025
      14    C4      20.090686   18.626435   19.820811 C.3        1 MOL1        -0.2258
      15    H10     19.250806   19.327865   19.886175 H          1 MOL1         0.1036
      16    H11     19.986322   18.086559   18.870653 H          1 MOL1         0.1036
      17    H12     21.027277   19.197505   19.778034 H          1 MOL1         0.1036
@<TRIPOS>BOND
    1     1     2    1
    2     1     3    1
    3     1     4    1
    4     1     5    1
    5     5     6    1
    6     5     7    1
    7     5     8    1
    8     8     9    1
    9     8    10    1
   10     8    11    1
   11    11    12    1
   12    11    13    1
   13    11    14    1
   14    14    15    1
   15    14    16    1
   16    14    17    1
@<TRIPOS>SUBSTRUCTURE
       1 MOL1            1 RESIDUE      1      MOL     
@<SCITEGIC>MOL_PROPERTY
VConf Rank
SciTegic.value.IntegerValue
561

@<SCITEGIC>MOL_PROPERTY
Conf_Id
SciTegic.value.IntegerValue
19

@<SCITEGIC>MOL_PROPERTY
Delta U+W
SciTegic.value.DoubleValue
2.662

@<SCITEGIC>MOL_PROPERTY
U+W
SciTegic.value.DoubleValue
-13.203

@<SCITEGIC>MOL_PROPERTY
Grad RMS
SciTegic.value.DoubleValue
0.000000

@<SCITEGIC>MOL_PROPERTY
U
SciTegic.value.DoubleValue
47.423

@<SCITEGIC>MOL_PROPERTY
W
SciTegic.value.DoubleValue
-60.626

@<SCITEGIC>MOL_PROPERTY
W(PB)
SciTegic.value.DoubleValue
-62.328

@<SCITEGIC>MOL_PROPERTY
W(SA)
SciTegic.value.DoubleValue
1.702

@<SCITEGIC>MOL_PROPERTY
Valence
SciTegic.value.DoubleValue
2.414

@<SCITEGIC>MOL_PROPERTY
Coulomb
SciTegic.value.DoubleValue
44.831

@<SCITEGIC>MOL_PROPERTY
VdW
SciTegic.value.DoubleValue
0.178

@<SCITEGIC>MOL_PROPERTY
VdW6
SciTegic.value.DoubleValue
-3.743

@<SCITEGIC>MOL_PROPERTY
VdW12
SciTegic.value.DoubleValue
3.921

@<SCITEGIC>MOL_PROPERTY
Bond
SciTegic.value.DoubleValue
0.138

@<SCITEGIC>MOL_PROPERTY
Angle
SciTegic.value.DoubleValue
0.941

@<SCITEGIC>MOL_PROPERTY
Pdih
SciTegic.value.DoubleValue
1.335

@<SCITEGIC>MOL_PROPERTY
Idih
SciTegic.value.DoubleValue
0.000

@<SCITEGIC>MOL_PROPERTY
Tether
SciTegic.value.DoubleValue
0.000

@<TRIPOS>MOLECULE
guest-1_confgen4.mol2 : confsearch ligand conformer 562
          17          16           1
SMALL
USER_CHARGES
 
@<TRIPOS>ATOM
       1    N1      18.832241   19.392316   20.101472 N.4        1 MOL1        -0.5891
       2    H1      18.218413   18.993987   19.383578 H          1 MOL1         0.3726
       3    H2      19.054951   20.347384   19.805285 H          1 MOL1         0.3726
       4    H3      18.283373   19.464372   20.961935 H          1 MOL1         0.3726
       5    C1      20.082949   18.557977   20.300589 C.3        1 MOL1         0.0314
       6    H4      20.607465   18.534079   19.341502 H          1 MOL1         0.0999
       7    H5      19.783848   17.535801   20.547562 H          1 MOL1         0.0999
       8    C2      21.040205   19.098262   21.383808 C.3        1 MOL1        -0.1308
       9    H6      22.036357   18.678890   21.189762 H          1 MOL1         0.1025
      10    H7      21.146571   20.186418   21.282163 H          1 MOL1         0.1025
      11    C3      20.642144   18.728723   22.835598 C.3        1 MOL1        -0.1243
      12    H8      21.440179   19.068906   23.510435 H          1 MOL1         0.1025
      13    H9      20.601022   17.635426   22.940627 H          1 MOL1         0.1025
      14    C4      19.304125   19.342085   23.307160 C.3        1 MOL1        -0.2258
      15    H10     19.276481   20.424670   23.127169 H          1 MOL1         0.1036
      16    H11     19.170177   19.180276   24.384672 H          1 MOL1         0.1036
      17    H12     18.448708   18.877273   22.803284 H          1 MOL1         0.1036
@<TRIPOS>BOND
    1     1     2    1
    2     1     3    1
    3     1     4    1
    4     1     5    1
    5     5     6    1
    6     5     7    1
    7     5     8    1
    8     8     9    1
    9     8    10    1
   10     8    11    1
   11    11    12    1
   12    11    13    1
   13    11    14    1
   14    14    15    1
   15    14    16    1
   16    14    17    1
@<TRIPOS>SUBSTRUCTURE
       1 MOL1            1 RESIDUE      1      MOL     
@<SCITEGIC>MOL_PROPERTY
VConf Rank
SciTegic.value.IntegerValue
562

@<SCITEGIC>MOL_PROPERTY
Conf_Id
SciTegic.value.IntegerValue
44

@<SCITEGIC>MOL_PROPERTY
Delta U+W
SciTegic.value.DoubleValue
2.712

@<SCITEGIC>MOL_PROPERTY
U+W
SciTegic.value.DoubleValue
-13.153

@<SCITEGIC>MOL_PROPERTY
Grad RMS
SciTegic.value.DoubleValue
0.000000

@<SCITEGIC>MOL_PROPERTY
U
SciTegic.value.DoubleValue
47.423

@<SCITEGIC>MOL_PROPERTY
W
SciTegic.value.DoubleValue
-60.576

@<SCITEGIC>MOL_PROPERTY
W(PB)
SciTegic.value.DoubleValue
-62.262

@<SCITEGIC>MOL_PROPERTY
W(SA)
SciTegic.value.DoubleValue
1.687

@<SCITEGIC>MOL_PROPERTY
Valence
SciTegic.value.DoubleValue
2.414

@<SCITEGIC>MOL_PROPERTY
Coulomb
SciTegic.value.DoubleValue
44.831

@<SCITEGIC>MOL_PROPERTY
VdW
SciTegic.value.DoubleValue
0.178

@<SCITEGIC>MOL_PROPERTY
VdW6
SciTegic.value.DoubleValue
-3.743

@<SCITEGIC>MOL_PROPERTY
VdW12
SciTegic.value.DoubleValue
3.922

@<SCITEGIC>MOL_PROPERTY
Bond
SciTegic.value.DoubleValue
0.138

@<SCITEGIC>MOL_PROPERTY
Angle
SciTegic.value.DoubleValue
0.941

@<SCITEGIC>MOL_PROPERTY
Pdih
SciTegic.value.DoubleValue
1.335

@<SCITEGIC>MOL_PROPERTY
Idih
SciTegic.value.DoubleValue
0.000

@<SCITEGIC>MOL_PROPERTY
Tether
SciTegic.value.DoubleValue
0.000

@<TRIPOS>MOLECULE
guest-1_confgen4.mol2 : confsearch ligand conformer 563
          17          16           1
SMALL
USER_CHARGES
 
@<TRIPOS>ATOM
       1    N1      18.734151   20.477063   20.910814 N.4        1 MOL1        -0.5891
       2    H1      18.846324   19.793091   20.157126 H          1 MOL1         0.3726
       3    H2      19.268584   21.309905   20.645986 H          1 MOL1         0.3726
       4    H3      17.745971   20.749111   20.923355 H          1 MOL1         0.3726
       5    C1      19.182400   19.918585   22.247614 C.3        1 MOL1         0.0314
       6    H4      18.555135   19.054674   22.482139 H          1 MOL1         0.0999
       7    H5      19.000058   20.684417   23.006424 H          1 MOL1         0.0999
       8    C2      20.668851   19.507409   22.283882 C.3        1 MOL1        -0.1308
       9    H6      21.291831   20.390043   22.087405 H          1 MOL1         0.1025
      10    H7      20.917491   19.178242   23.301542 H          1 MOL1         0.1025
      11    C3      21.036714   18.385140   21.281512 C.3        1 MOL1        -0.1243
      12    H8      22.111155   18.171010   21.368857 H          1 MOL1         0.1025
      13    H9      20.879825   18.732648   20.251328 H          1 MOL1         0.1025
      14    C4      20.243674   17.079201   21.516905 C.3        1 MOL1        -0.2258
      15    H10     20.385425   16.710648   22.541182 H          1 MOL1         0.1036
      16    H11     20.582273   16.293785   20.828835 H          1 MOL1         0.1036
      17    H12     19.168779   17.223792   21.350642 H          1 MOL1         0.1036
@<TRIPOS>BOND
    1     1     2    1
    2     1     3    1
    3     1     4    1
    4     1     5    1
    5     5     6    1
    6     5     7    1
    7     5     8    1
    8     8     9    1
    9     8    10    1
   10     8    11    1
   11    11    12    1
   12    11    13    1
   13    11    14    1
   14    14    15    1
   15    14    16    1
   16    14    17    1
@<TRIPOS>SUBSTRUCTURE
       1 MOL1            1 RESIDUE      1      MOL     
@<SCITEGIC>MOL_PROPERTY
VConf Rank
SciTegic.value.IntegerValue
563

@<SCITEGIC>MOL_PROPERTY
Conf_Id
SciTegic.value.IntegerValue
1

@<SCITEGIC>MOL_PROPERTY
Delta U+W
SciTegic.value.DoubleValue
0.685

@<SCITEGIC>MOL_PROPERTY
U+W
SciTegic.value.DoubleValue
-15.179

@<SCITEGIC>MOL_PROPERTY
Grad RMS
SciTegic.value.DoubleValue
0.000000

@<SCITEGIC>MOL_PROPERTY
U
SciTegic.value.DoubleValue
45.697

@<SCITEGIC>MOL_PROPERTY
W
SciTegic.value.DoubleValue
-60.876

@<SCITEGIC>MOL_PROPERTY
W(PB)
SciTegic.value.DoubleValue
-62.586

@<SCITEGIC>MOL_PROPERTY
W(SA)
SciTegic.value.DoubleValue
1.710

@<SCITEGIC>MOL_PROPERTY
Valence
SciTegic.value.DoubleValue
1.263

@<SCITEGIC>MOL_PROPERTY
Coulomb
SciTegic.value.DoubleValue
44.179

@<SCITEGIC>MOL_PROPERTY
VdW
SciTegic.value.DoubleValue
0.255

@<SCITEGIC>MOL_PROPERTY
VdW6
SciTegic.value.DoubleValue
-3.552

@<SCITEGIC>MOL_PROPERTY
VdW12
SciTegic.value.DoubleValue
3.807

@<SCITEGIC>MOL_PROPERTY
Bond
SciTegic.value.DoubleValue
0.125

@<SCITEGIC>MOL_PROPERTY
Angle
SciTegic.value.DoubleValue
0.616

@<SCITEGIC>MOL_PROPERTY
Pdih
SciTegic.value.DoubleValue
0.521

@<SCITEGIC>MOL_PROPERTY
Idih
SciTegic.value.DoubleValue
0.000

@<SCITEGIC>MOL_PROPERTY
Tether
SciTegic.value.DoubleValue
0.000

@<TRIPOS>MOLECULE
guest-1_confgen4.mol2 : confsearch ligand conformer 564
          17          16           1
SMALL
USER_CHARGES
 
@<TRIPOS>ATOM
       1    N1      18.112253   18.991402   22.408932 N.4        1 MOL1        -0.5891
       2    H1      18.150239   18.756689   23.405347 H          1 MOL1         0.3726
       3    H2      18.227707   18.117756   21.887528 H          1 MOL1         0.3726
       4    H3      17.163661   19.330130   22.218919 H          1 MOL1         0.3726
       5    C1      19.163727   20.015865   22.028491 C.3        1 MOL1         0.0314
       6    H4      18.957474   20.929783   22.592184 H          1 MOL1         0.0999
       7    H5      19.048631   20.241656   20.965205 H          1 MOL1         0.0999
       8    C2      20.609819   19.557868   22.309520 C.3        1 MOL1        -0.1308
       9    H6      21.293032   20.382091   22.065227 H          1 MOL1         0.1025
      10    H7      20.726581   19.372866   23.385573 H          1 MOL1         0.1025
      11    C3      21.034671   18.293692   21.521536 C.3        1 MOL1        -0.1243
      12    H8      20.418502   17.435835   21.823316 H          1 MOL1         0.1025
      13    H9      22.067435   18.036442   21.795626 H          1 MOL1         0.1025
      14    C4      20.953346   18.479654   19.989021 C.3        1 MOL1        -0.2258
      15    H10     21.324511   17.585066   19.472382 H          1 MOL1         0.1036
      16    H11     21.562978   19.332010   19.662058 H          1 MOL1         0.1036
      17    H12     19.921419   18.649232   19.656876 H          1 MOL1         0.1036
@<TRIPOS>BOND
    1     1     2    1
    2     1     3    1
    3     1     4    1
    4     1     5    1
    5     5     6    1
    6     5     7    1
    7     5     8    1
    8     8     9    1
    9     8    10    1
   10     8    11    1
   11    11    12    1
   12    11    13    1
   13    11    14    1
   14    14    15    1
   15    14    16    1
   16    14    17    1
@<TRIPOS>SUBSTRUCTURE
       1 MOL1            1 RESIDUE      1      MOL     
@<SCITEGIC>MOL_PROPERTY
VConf Rank
SciTegic.value.IntegerValue
564

@<SCITEGIC>MOL_PROPERTY
Conf_Id
SciTegic.value.IntegerValue
43

@<SCITEGIC>MOL_PROPERTY
Delta U+W
SciTegic.value.DoubleValue
0.642

@<SCITEGIC>MOL_PROPERTY
U+W
SciTegic.value.DoubleValue
-15.222

@<SCITEGIC>MOL_PROPERTY
Grad RMS
SciTegic.value.DoubleValue
0.000000

@<SCITEGIC>MOL_PROPERTY
U
SciTegic.value.DoubleValue
45.697

@<SCITEGIC>MOL_PROPERTY
W
SciTegic.value.DoubleValue
-60.919

@<SCITEGIC>MOL_PROPERTY
W(PB)
SciTegic.value.DoubleValue
-62.631

@<SCITEGIC>MOL_PROPERTY
W(SA)
SciTegic.value.DoubleValue
1.712

@<SCITEGIC>MOL_PROPERTY
Valence
SciTegic.value.DoubleValue
1.262

@<SCITEGIC>MOL_PROPERTY
Coulomb
SciTegic.value.DoubleValue
44.179

@<SCITEGIC>MOL_PROPERTY
VdW
SciTegic.value.DoubleValue
0.255

@<SCITEGIC>MOL_PROPERTY
VdW6
SciTegic.value.DoubleValue
-3.552

@<SCITEGIC>MOL_PROPERTY
VdW12
SciTegic.value.DoubleValue
3.807

@<SCITEGIC>MOL_PROPERTY
Bond
SciTegic.value.DoubleValue
0.125

@<SCITEGIC>MOL_PROPERTY
Angle
SciTegic.value.DoubleValue
0.616

@<SCITEGIC>MOL_PROPERTY
Pdih
SciTegic.value.DoubleValue
0.521

@<SCITEGIC>MOL_PROPERTY
Idih
SciTegic.value.DoubleValue
0.000

@<SCITEGIC>MOL_PROPERTY
Tether
SciTegic.value.DoubleValue
0.000

@<TRIPOS>MOLECULE
guest-1_confgen4.mol2 : confsearch ligand conformer 565
          17          16           1
SMALL
USER_CHARGES
 
@<TRIPOS>ATOM
       1    N1      21.972279   18.877078   23.180502 N.4        1 MOL1        -0.5891
       2    H1      22.562299   18.298348   22.574990 H          1 MOL1         0.3726
       3    H2      21.544320   18.251693   23.870024 H          1 MOL1         0.3726
       4    H3      22.600264   19.501696   23.696638 H          1 MOL1         0.3726
       5    C1      20.933264   19.648693   22.391569 C.3        1 MOL1         0.0314
       6    H4      21.459020   20.314086   21.701383 H          1 MOL1         0.0999
       7    H5      20.364387   20.263955   23.093962 H          1 MOL1         0.0999
       8    C2      19.972103   18.740317   21.603354 C.3        1 MOL1        -0.1308
       9    H6      20.548267   18.113029   20.910147 H          1 MOL1         0.1025
      10    H7      19.457297   18.063180   22.297941 H          1 MOL1         0.1025
      11    C3      18.931263   19.565110   20.814755 C.3        1 MOL1        -0.1243
      12    H8      19.446070   20.245498   20.121665 H          1 MOL1         0.1025
      13    H9      18.356383   20.195652   21.507760 H          1 MOL1         0.1025
      14    C4      17.963590   18.660526   20.021476 C.3        1 MOL1        -0.2258
      15    H10     17.232822   19.265035   19.468668 H          1 MOL1         0.1036
      16    H11     17.408237   17.991777   20.691971 H          1 MOL1         0.1036
      17    H12     18.506544   18.041973   19.294977 H          1 MOL1         0.1036
@<TRIPOS>BOND
    1     1     2    1
    2     1     3    1
    3     1     4    1
    4     1     5    1
    5     5     6    1
    6     5     7    1
    7     5     8    1
    8     8     9    1
    9     8    10    1
   10     8    11    1
   11    11    12    1
   12    11    13    1
   13    11    14    1
   14    14    15    1
   15    14    16    1
   16    14    17    1
@<TRIPOS>SUBSTRUCTURE
       1 MOL1            1 RESIDUE      1      MOL     
@<SCITEGIC>MOL_PROPERTY
VConf Rank
SciTegic.value.IntegerValue
565

@<SCITEGIC>MOL_PROPERTY
Conf_Id
SciTegic.value.IntegerValue
7

@<SCITEGIC>MOL_PROPERTY
Delta U+W
SciTegic.value.DoubleValue
0.000

@<SCITEGIC>MOL_PROPERTY
U+W
SciTegic.value.DoubleValue
-15.865

@<SCITEGIC>MOL_PROPERTY
Grad RMS
SciTegic.value.DoubleValue
0.000000

@<SCITEGIC>MOL_PROPERTY
U
SciTegic.value.DoubleValue
44.664

@<SCITEGIC>MOL_PROPERTY
W
SciTegic.value.DoubleValue
-60.529

@<SCITEGIC>MOL_PROPERTY
W(PB)
SciTegic.value.DoubleValue
-62.309

@<SCITEGIC>MOL_PROPERTY
W(SA)
SciTegic.value.DoubleValue
1.780

@<SCITEGIC>MOL_PROPERTY
Valence
SciTegic.value.DoubleValue
0.872

@<SCITEGIC>MOL_PROPERTY
Coulomb
SciTegic.value.DoubleValue
43.648

@<SCITEGIC>MOL_PROPERTY
VdW
SciTegic.value.DoubleValue
0.144

@<SCITEGIC>MOL_PROPERTY
VdW6
SciTegic.value.DoubleValue
-2.370

@<SCITEGIC>MOL_PROPERTY
VdW12
SciTegic.value.DoubleValue
2.515

@<SCITEGIC>MOL_PROPERTY
Bond
SciTegic.value.DoubleValue
0.080

@<SCITEGIC>MOL_PROPERTY
Angle
SciTegic.value.DoubleValue
0.376

@<SCITEGIC>MOL_PROPERTY
Pdih
SciTegic.value.DoubleValue
0.416

@<SCITEGIC>MOL_PROPERTY
Idih
SciTegic.value.DoubleValue
0.000

@<SCITEGIC>MOL_PROPERTY
Tether
SciTegic.value.DoubleValue
0.000

@<TRIPOS>MOLECULE
guest-1_confgen4.mol2 : confsearch ligand conformer 566
          17          16           1
SMALL
USER_CHARGES
 
@<TRIPOS>ATOM
       1    N1      19.512533   20.483999   23.551172 N.4        1 MOL1        -0.5891
       2    H1      19.531153   21.466065   23.259885 H          1 MOL1         0.3726
       3    H2      20.390209   20.300709   24.046890 H          1 MOL1         0.3726
       4    H3      18.758658   20.393550   24.239891 H          1 MOL1         0.3726
       5    C1      19.317940   19.546740   22.375996 C.3        1 MOL1         0.0314
       6    H4      18.353684   19.777959   21.915392 H          1 MOL1         0.0999
       7    H5      19.276603   18.525687   22.764042 H          1 MOL1         0.0999
       8    C2      20.435117   19.656835   21.320651 C.3        1 MOL1        -0.1308
       9    H6      20.494756   20.694659   20.966755 H          1 MOL1         0.1025
      10    H7      21.403786   19.426237   21.783677 H          1 MOL1         0.1025
      11    C3      20.204606   18.724281   20.108540 C.3        1 MOL1        -0.1243
      12    H8      20.989015   18.909628   19.361325 H          1 MOL1         0.1025
      13    H9      19.250748   18.975960   19.623778 H          1 MOL1         0.1025
      14    C4      20.214363   17.225801   20.488565 C.3        1 MOL1        -0.2258
      15    H10     21.155750   16.949184   20.980906 H          1 MOL1         0.1036
      16    H11     20.109140   16.600733   19.592337 H          1 MOL1         0.1036
      17    H12     19.387319   16.975746   21.164998 H          1 MOL1         0.1036
@<TRIPOS>BOND
    1     1     2    1
    2     1     3    1
    3     1     4    1
    4     1     5    1
    5     5     6    1
    6     5     7    1
    7     5     8    1
    8     8     9    1
    9     8    10    1
   10     8    11    1
   11    11    12    1
   12    11    13    1
   13    11    14    1
   14    14    15    1
   15    14    16    1
   16    14    17    1
@<TRIPOS>SUBSTRUCTURE
       1 MOL1            1 RESIDUE      1      MOL     
@<SCITEGIC>MOL_PROPERTY
VConf Rank
SciTegic.value.IntegerValue
566

@<SCITEGIC>MOL_PROPERTY
Conf_Id
SciTegic.value.IntegerValue
36

@<SCITEGIC>MOL_PROPERTY
Delta U+W
SciTegic.value.DoubleValue
0.275

@<SCITEGIC>MOL_PROPERTY
U+W
SciTegic.value.DoubleValue
-15.590

@<SCITEGIC>MOL_PROPERTY
Grad RMS
SciTegic.value.DoubleValue
0.000000

@<SCITEGIC>MOL_PROPERTY
U
SciTegic.value.DoubleValue
45.174

@<SCITEGIC>MOL_PROPERTY
W
SciTegic.value.DoubleValue
-60.765

@<SCITEGIC>MOL_PROPERTY
W(PB)
SciTegic.value.DoubleValue
-62.518

@<SCITEGIC>MOL_PROPERTY
W(SA)
SciTegic.value.DoubleValue
1.754

@<SCITEGIC>MOL_PROPERTY
Valence
SciTegic.value.DoubleValue
1.161

@<SCITEGIC>MOL_PROPERTY
Coulomb
SciTegic.value.DoubleValue
43.789

@<SCITEGIC>MOL_PROPERTY
VdW
SciTegic.value.DoubleValue
0.224

@<SCITEGIC>MOL_PROPERTY
VdW6
SciTegic.value.DoubleValue
-2.897

@<SCITEGIC>MOL_PROPERTY
VdW12
SciTegic.value.DoubleValue
3.121

@<SCITEGIC>MOL_PROPERTY
Bond
SciTegic.value.DoubleValue
0.100

@<SCITEGIC>MOL_PROPERTY
Angle
SciTegic.value.DoubleValue
0.500

@<SCITEGIC>MOL_PROPERTY
Pdih
SciTegic.value.DoubleValue
0.561

@<SCITEGIC>MOL_PROPERTY
Idih
SciTegic.value.DoubleValue
0.000

@<SCITEGIC>MOL_PROPERTY
Tether
SciTegic.value.DoubleValue
0.000

@<TRIPOS>MOLECULE
guest-1_confgen4.mol2 : confsearch ligand conformer 567
          17          16           1
SMALL
USER_CHARGES
 
@<TRIPOS>ATOM
       1    N1      21.773368   19.043416   21.892871 N.4        1 MOL1        -0.5891
       2    H1      21.259251   19.437010   22.685091 H          1 MOL1         0.3726
       3    H2      22.123809   19.831266   21.339732 H          1 MOL1         0.3726
       4    H3      22.592992   18.560082   22.274219 H          1 MOL1         0.3726
       5    C1      20.905717   18.115244   21.064794 C.3        1 MOL1         0.0314
       6    H4      20.618316   17.261902   21.684882 H          1 MOL1         0.0999
       7    H5      21.526713   17.743379   20.245271 H          1 MOL1         0.0999
       8    C2      19.644246   18.782206   20.477029 C.3        1 MOL1        -0.1308
       9    H6      19.897665   19.768427   20.066086 H          1 MOL1         0.1025
      10    H7      19.312116   18.176561   19.623372 H          1 MOL1         0.1025
      11    C3      18.458228   18.899644   21.468127 C.3        1 MOL1        -0.1243
      12    H8      18.173243   17.899436   21.823638 H          1 MOL1         0.1025
      13    H9      17.587262   19.287156   20.921097 H          1 MOL1         0.1025
      14    C4      18.727232   19.819849   22.680456 C.3        1 MOL1        -0.2258
      15    H10     19.447496   19.370989   23.374300 H          1 MOL1         0.1036
      16    H11     17.799903   19.988545   23.243269 H          1 MOL1         0.1036
      17    H12     19.105642   20.799606   22.361026 H          1 MOL1         0.1036
@<TRIPOS>BOND
    1     1     2    1
    2     1     3    1
    3     1     4    1
    4     1     5    1
    5     5     6    1
    6     5     7    1
    7     5     8    1
    8     8     9    1
    9     8    10    1
   10     8    11    1
   11    11    12    1
   12    11    13    1
   13    11    14    1
   14    14    15    1
   15    14    16    1
   16    14    17    1
@<TRIPOS>SUBSTRUCTURE
       1 MOL1            1 RESIDUE      1      MOL     
@<SCITEGIC>MOL_PROPERTY
VConf Rank
SciTegic.value.IntegerValue
567

@<SCITEGIC>MOL_PROPERTY
Conf_Id
SciTegic.value.IntegerValue
19

@<SCITEGIC>MOL_PROPERTY
Delta U+W
SciTegic.value.DoubleValue
2.662

@<SCITEGIC>MOL_PROPERTY
U+W
SciTegic.value.DoubleValue
-13.203

@<SCITEGIC>MOL_PROPERTY
Grad RMS
SciTegic.value.DoubleValue
0.000000

@<SCITEGIC>MOL_PROPERTY
U
SciTegic.value.DoubleValue
47.423

@<SCITEGIC>MOL_PROPERTY
W
SciTegic.value.DoubleValue
-60.626

@<SCITEGIC>MOL_PROPERTY
W(PB)
SciTegic.value.DoubleValue
-62.328

@<SCITEGIC>MOL_PROPERTY
W(SA)
SciTegic.value.DoubleValue
1.702

@<SCITEGIC>MOL_PROPERTY
Valence
SciTegic.value.DoubleValue
2.414

@<SCITEGIC>MOL_PROPERTY
Coulomb
SciTegic.value.DoubleValue
44.831

@<SCITEGIC>MOL_PROPERTY
VdW
SciTegic.value.DoubleValue
0.178

@<SCITEGIC>MOL_PROPERTY
VdW6
SciTegic.value.DoubleValue
-3.743

@<SCITEGIC>MOL_PROPERTY
VdW12
SciTegic.value.DoubleValue
3.921

@<SCITEGIC>MOL_PROPERTY
Bond
SciTegic.value.DoubleValue
0.138

@<SCITEGIC>MOL_PROPERTY
Angle
SciTegic.value.DoubleValue
0.941

@<SCITEGIC>MOL_PROPERTY
Pdih
SciTegic.value.DoubleValue
1.335

@<SCITEGIC>MOL_PROPERTY
Idih
SciTegic.value.DoubleValue
0.000

@<SCITEGIC>MOL_PROPERTY
Tether
SciTegic.value.DoubleValue
0.000

@<TRIPOS>MOLECULE
guest-1_confgen4.mol2 : confsearch ligand conformer 568
          17          16           1
SMALL
USER_CHARGES
 
@<TRIPOS>ATOM
       1    N1      19.995727   20.915358   21.673232 N.4        1 MOL1        -0.5891
       2    H1      19.764488   21.765664   22.197000 H          1 MOL1         0.3726
       3    H2      20.324996   21.215097   20.750617 H          1 MOL1         0.3726
       4    H3      20.788367   20.474974   22.147180 H          1 MOL1         0.3726
       5    C1      18.809543   19.975978   21.570414 C.3        1 MOL1         0.0314
       6    H4      18.014397   20.520306   21.053707 H          1 MOL1         0.0999
       7    H5      18.459784   19.745106   22.580200 H          1 MOL1         0.0999
       8    C2      19.101176   18.667078   20.806644 C.3        1 MOL1        -0.1308
       9    H6      18.141413   18.258982   20.462903 H          1 MOL1         0.1025
      10    H7      19.679183   18.883034   19.898349 H          1 MOL1         0.1025
      11    C3      19.808853   17.575292   21.649199 C.3        1 MOL1        -0.1243
      12    H8      19.871465   16.658870   21.045675 H          1 MOL1         0.1025
      13    H9      19.189958   17.322735   22.521671 H          1 MOL1         0.1025
      14    C4      21.231917   17.953178   22.119275 C.3        1 MOL1        -0.2258
      15    H10     21.849092   18.302080   21.281114 H          1 MOL1         0.1036
      16    H11     21.731415   17.080463   22.559760 H          1 MOL1         0.1036
      17    H12     21.207437   18.732652   22.889664 H          1 MOL1         0.1036
@<TRIPOS>BOND
    1     1     2    1
    2     1     3    1
    3     1     4    1
    4     1     5    1
    5     5     6    1
    6     5     7    1
    7     5     8    1
    8     8     9    1
    9     8    10    1
   10     8    11    1
   11    11    12    1
   12    11    13    1
   13    11    14    1
   14    14    15    1
   15    14    16    1
   16    14    17    1
@<TRIPOS>SUBSTRUCTURE
       1 MOL1            1 RESIDUE      1      MOL     
@<SCITEGIC>MOL_PROPERTY
VConf Rank
SciTegic.value.IntegerValue
568

@<SCITEGIC>MOL_PROPERTY
Conf_Id
SciTegic.value.IntegerValue
44

@<SCITEGIC>MOL_PROPERTY
Delta U+W
SciTegic.value.DoubleValue
2.712

@<SCITEGIC>MOL_PROPERTY
U+W
SciTegic.value.DoubleValue
-13.153

@<SCITEGIC>MOL_PROPERTY
Grad RMS
SciTegic.value.DoubleValue
0.000000

@<SCITEGIC>MOL_PROPERTY
U
SciTegic.value.DoubleValue
47.423

@<SCITEGIC>MOL_PROPERTY
W
SciTegic.value.DoubleValue
-60.576

@<SCITEGIC>MOL_PROPERTY
W(PB)
SciTegic.value.DoubleValue
-62.262

@<SCITEGIC>MOL_PROPERTY
W(SA)
SciTegic.value.DoubleValue
1.687

@<SCITEGIC>MOL_PROPERTY
Valence
SciTegic.value.DoubleValue
2.414

@<SCITEGIC>MOL_PROPERTY
Coulomb
SciTegic.value.DoubleValue
44.831

@<SCITEGIC>MOL_PROPERTY
VdW
SciTegic.value.DoubleValue
0.178

@<SCITEGIC>MOL_PROPERTY
VdW6
SciTegic.value.DoubleValue
-3.743

@<SCITEGIC>MOL_PROPERTY
VdW12
SciTegic.value.DoubleValue
3.922

@<SCITEGIC>MOL_PROPERTY
Bond
SciTegic.value.DoubleValue
0.138

@<SCITEGIC>MOL_PROPERTY
Angle
SciTegic.value.DoubleValue
0.941

@<SCITEGIC>MOL_PROPERTY
Pdih
SciTegic.value.DoubleValue
1.335

@<SCITEGIC>MOL_PROPERTY
Idih
SciTegic.value.DoubleValue
0.000

@<SCITEGIC>MOL_PROPERTY
Tether
SciTegic.value.DoubleValue
0.000

@<TRIPOS>MOLECULE
guest-1_confgen4.mol2 : confsearch ligand conformer 569
          17          16           1
SMALL
USER_CHARGES
 
@<TRIPOS>ATOM
       1    N1      21.644290   18.095601   21.318497 N.4        1 MOL1        -0.5891
       2    H1      21.770882   19.058041   20.992720 H          1 MOL1         0.3726
       3    H2      21.614634   17.496276   20.488251 H          1 MOL1         0.3726
       4    H3      22.490411   17.842008   21.838533 H          1 MOL1         0.3726
       5    C1      20.395779   17.949256   22.166826 C.3        1 MOL1         0.0314
       6    H4      20.505684   18.589542   23.045893 H          1 MOL1         0.0999
       7    H5      20.345206   16.911889   22.508661 H          1 MOL1         0.0999
       8    C2      19.092153   18.306018   21.423051 C.3        1 MOL1        -0.1308
       9    H6      18.970164   17.631030   20.565578 H          1 MOL1         0.1025
      10    H7      18.242220   18.109541   22.089994 H          1 MOL1         0.1025
      11    C3      19.027242   19.774581   20.934517 C.3        1 MOL1        -0.1243
      12    H8      18.075622   19.930250   20.407174 H          1 MOL1         0.1025
      13    H9      19.817588   19.961778   20.194946 H          1 MOL1         0.1025
      14    C4      19.137367   20.800938   22.085282 C.3        1 MOL1        -0.2258
      15    H10     18.355971   20.634907   22.838224 H          1 MOL1         0.1036
      16    H11     19.021029   21.822993   21.702088 H          1 MOL1         0.1036
      17    H12     20.112399   20.744111   22.585314 H          1 MOL1         0.1036
@<TRIPOS>BOND
    1     1     2    1
    2     1     3    1
    3     1     4    1
    4     1     5    1
    5     5     6    1
    6     5     7    1
    7     5     8    1
    8     8     9    1
    9     8    10    1
   10     8    11    1
   11    11    12    1
   12    11    13    1
   13    11    14    1
   14    14    15    1
   15    14    16    1
   16    14    17    1
@<TRIPOS>SUBSTRUCTURE
       1 MOL1            1 RESIDUE      1      MOL     
@<SCITEGIC>MOL_PROPERTY
VConf Rank
SciTegic.value.IntegerValue
569

@<SCITEGIC>MOL_PROPERTY
Conf_Id
SciTegic.value.IntegerValue
1

@<SCITEGIC>MOL_PROPERTY
Delta U+W
SciTegic.value.DoubleValue
0.685

@<SCITEGIC>MOL_PROPERTY
U+W
SciTegic.value.DoubleValue
-15.179

@<SCITEGIC>MOL_PROPERTY
Grad RMS
SciTegic.value.DoubleValue
0.000000

@<SCITEGIC>MOL_PROPERTY
U
SciTegic.value.DoubleValue
45.697

@<SCITEGIC>MOL_PROPERTY
W
SciTegic.value.DoubleValue
-60.876

@<SCITEGIC>MOL_PROPERTY
W(PB)
SciTegic.value.DoubleValue
-62.586

@<SCITEGIC>MOL_PROPERTY
W(SA)
SciTegic.value.DoubleValue
1.710

@<SCITEGIC>MOL_PROPERTY
Valence
SciTegic.value.DoubleValue
1.263

@<SCITEGIC>MOL_PROPERTY
Coulomb
SciTegic.value.DoubleValue
44.179

@<SCITEGIC>MOL_PROPERTY
VdW
SciTegic.value.DoubleValue
0.255

@<SCITEGIC>MOL_PROPERTY
VdW6
SciTegic.value.DoubleValue
-3.552

@<SCITEGIC>MOL_PROPERTY
VdW12
SciTegic.value.DoubleValue
3.807

@<SCITEGIC>MOL_PROPERTY
Bond
SciTegic.value.DoubleValue
0.125

@<SCITEGIC>MOL_PROPERTY
Angle
SciTegic.value.DoubleValue
0.616

@<SCITEGIC>MOL_PROPERTY
Pdih
SciTegic.value.DoubleValue
0.521

@<SCITEGIC>MOL_PROPERTY
Idih
SciTegic.value.DoubleValue
0.000

@<SCITEGIC>MOL_PROPERTY
Tether
SciTegic.value.DoubleValue
0.000

@<TRIPOS>MOLECULE
guest-1_confgen4.mol2 : confsearch ligand conformer 570
          17          16           1
SMALL
USER_CHARGES
 
@<TRIPOS>ATOM
       1    N1      19.950864   17.407271   22.744662 N.4        1 MOL1        -0.5891
       2    H1      19.930441   16.550514   22.183478 H          1 MOL1         0.3726
       3    H2      18.996289   17.777019   22.767478 H          1 MOL1         0.3726
       4    H3      20.187295   17.129944   23.702711 H          1 MOL1         0.3726
       5    C1      20.933352   18.422012   22.192507 C.3        1 MOL1         0.0314
       6    H4      21.930763   17.975816   22.232746 H          1 MOL1         0.0999
       7    H5      20.926731   19.294226   22.851297 H          1 MOL1         0.0999
       8    C2      20.628144   18.860764   20.745349 C.3        1 MOL1        -0.1308
       9    H6      21.421979   19.541241   20.409818 H          1 MOL1         0.1025
      10    H7      20.677343   17.984694   20.085176 H          1 MOL1         0.1025
      11    C3      19.254852   19.556751   20.574385 C.3        1 MOL1        -0.1243
      12    H8      18.443976   18.857230   20.818935 H          1 MOL1         0.1025
      13    H9      19.120298   19.818517   19.515481 H          1 MOL1         0.1025
      14    C4      19.114007   20.836646   21.429856 C.3        1 MOL1        -0.2258
      15    H10     18.154784   21.330850   21.228307 H          1 MOL1         0.1036
      16    H11     19.913911   21.553250   21.202481 H          1 MOL1         0.1036
      17    H12     19.150957   20.611293   22.503075 H          1 MOL1         0.1036
@<TRIPOS>BOND
    1     1     2    1
    2     1     3    1
    3     1     4    1
    4     1     5    1
    5     5     6    1
    6     5     7    1
    7     5     8    1
    8     8     9    1
    9     8    10    1
   10     8    11    1
   11    11    12    1
   12    11    13    1
   13    11    14    1
   14    14    15    1
   15    14    16    1
   16    14    17    1
@<TRIPOS>SUBSTRUCTURE
       1 MOL1            1 RESIDUE      1      MOL     
@<SCITEGIC>MOL_PROPERTY
VConf Rank
SciTegic.value.IntegerValue
570

@<SCITEGIC>MOL_PROPERTY
Conf_Id
SciTegic.value.IntegerValue
43

@<SCITEGIC>MOL_PROPERTY
Delta U+W
SciTegic.value.DoubleValue
0.642

@<SCITEGIC>MOL_PROPERTY
U+W
SciTegic.value.DoubleValue
-15.222

@<SCITEGIC>MOL_PROPERTY
Grad RMS
SciTegic.value.DoubleValue
0.000000

@<SCITEGIC>MOL_PROPERTY
U
SciTegic.value.DoubleValue
45.697

@<SCITEGIC>MOL_PROPERTY
W
SciTegic.value.DoubleValue
-60.919

@<SCITEGIC>MOL_PROPERTY
W(PB)
SciTegic.value.DoubleValue
-62.631

@<SCITEGIC>MOL_PROPERTY
W(SA)
SciTegic.value.DoubleValue
1.712

@<SCITEGIC>MOL_PROPERTY
Valence
SciTegic.value.DoubleValue
1.262

@<SCITEGIC>MOL_PROPERTY
Coulomb
SciTegic.value.DoubleValue
44.179

@<SCITEGIC>MOL_PROPERTY
VdW
SciTegic.value.DoubleValue
0.255

@<SCITEGIC>MOL_PROPERTY
VdW6
SciTegic.value.DoubleValue
-3.552

@<SCITEGIC>MOL_PROPERTY
VdW12
SciTegic.value.DoubleValue
3.807

@<SCITEGIC>MOL_PROPERTY
Bond
SciTegic.value.DoubleValue
0.125

@<SCITEGIC>MOL_PROPERTY
Angle
SciTegic.value.DoubleValue
0.616

@<SCITEGIC>MOL_PROPERTY
Pdih
SciTegic.value.DoubleValue
0.521

@<SCITEGIC>MOL_PROPERTY
Idih
SciTegic.value.DoubleValue
0.000

@<SCITEGIC>MOL_PROPERTY
Tether
SciTegic.value.DoubleValue
0.000

@<TRIPOS>MOLECULE
guest-1_confgen4.mol2 : confsearch ligand conformer 571
          17          16           1
SMALL
USER_CHARGES
 
@<TRIPOS>ATOM
       1    N1      17.954380   18.592457   23.138806 N.4        1 MOL1        -0.5891
       2    H1      18.467488   18.106933   23.880886 H          1 MOL1         0.3726
       3    H2      17.509167   17.873128   22.560838 H          1 MOL1         0.3726
       4    H3      17.199536   19.115718   23.594127 H          1 MOL1         0.3726
       5    C1      18.855985   19.498165   22.323847 C.3        1 MOL1         0.0314
       6    H4      19.269846   20.255343   22.995355 H          1 MOL1         0.0999
       7    H5      18.239330   20.003966   21.575899 H          1 MOL1         0.0999
       8    C2      20.002108   18.744027   21.625319 C.3        1 MOL1        -0.1308
       9    H6      20.610008   18.224764   22.378190 H          1 MOL1         0.1025
      10    H7      19.583041   17.974361   20.963513 H          1 MOL1         0.1025
      11    C3      20.895466   19.702207   20.807198 C.3        1 MOL1        -0.1243
      12    H8      21.312592   20.474844   21.468533 H          1 MOL1         0.1025
      13    H9      20.286907   20.224691   20.055538 H          1 MOL1         0.1025
      14    C4      22.047518   18.952734   20.103621 C.3        1 MOL1        -0.2258
      15    H10     22.669897   19.650427   19.528367 H          1 MOL1         0.1036
      16    H11     21.660697   18.195903   19.408795 H          1 MOL1         0.1036
      17    H12     22.694442   18.447981   20.832950 H          1 MOL1         0.1036
@<TRIPOS>BOND
    1     1     2    1
    2     1     3    1
    3     1     4    1
    4     1     5    1
    5     5     6    1
    6     5     7    1
    7     5     8    1
    8     8     9    1
    9     8    10    1
   10     8    11    1
   11    11    12    1
   12    11    13    1
   13    11    14    1
   14    14    15    1
   15    14    16    1
   16    14    17    1
@<TRIPOS>SUBSTRUCTURE
       1 MOL1            1 RESIDUE      1      MOL     
@<SCITEGIC>MOL_PROPERTY
VConf Rank
SciTegic.value.IntegerValue
571

@<SCITEGIC>MOL_PROPERTY
Conf_Id
SciTegic.value.IntegerValue
7

@<SCITEGIC>MOL_PROPERTY
Delta U+W
SciTegic.value.DoubleValue
0.000

@<SCITEGIC>MOL_PROPERTY
U+W
SciTegic.value.DoubleValue
-15.865

@<SCITEGIC>MOL_PROPERTY
Grad RMS
SciTegic.value.DoubleValue
0.000000

@<SCITEGIC>MOL_PROPERTY
U
SciTegic.value.DoubleValue
44.664

@<SCITEGIC>MOL_PROPERTY
W
SciTegic.value.DoubleValue
-60.529

@<SCITEGIC>MOL_PROPERTY
W(PB)
SciTegic.value.DoubleValue
-62.309

@<SCITEGIC>MOL_PROPERTY
W(SA)
SciTegic.value.DoubleValue
1.780

@<SCITEGIC>MOL_PROPERTY
Valence
SciTegic.value.DoubleValue
0.872

@<SCITEGIC>MOL_PROPERTY
Coulomb
SciTegic.value.DoubleValue
43.648

@<SCITEGIC>MOL_PROPERTY
VdW
SciTegic.value.DoubleValue
0.144

@<SCITEGIC>MOL_PROPERTY
VdW6
SciTegic.value.DoubleValue
-2.370

@<SCITEGIC>MOL_PROPERTY
VdW12
SciTegic.value.DoubleValue
2.515

@<SCITEGIC>MOL_PROPERTY
Bond
SciTegic.value.DoubleValue
0.080

@<SCITEGIC>MOL_PROPERTY
Angle
SciTegic.value.DoubleValue
0.376

@<SCITEGIC>MOL_PROPERTY
Pdih
SciTegic.value.DoubleValue
0.416

@<SCITEGIC>MOL_PROPERTY
Idih
SciTegic.value.DoubleValue
0.000

@<SCITEGIC>MOL_PROPERTY
Tether
SciTegic.value.DoubleValue
0.000

@<TRIPOS>MOLECULE
guest-1_confgen4.mol2 : confsearch ligand conformer 572
          17          16           1
SMALL
USER_CHARGES
 
@<TRIPOS>ATOM
       1    N1      20.385709   18.514365   19.322405 N.4        1 MOL1        -0.5891
       2    H1      19.976848   17.595136   19.128757 H          1 MOL1         0.3726
       3    H2      21.397654   18.380812   19.410595 H          1 MOL1         0.3726
       4    H3      20.234185   19.088009   18.486452 H          1 MOL1         0.3726
       5    C1      19.787386   19.152625   20.560140 C.3        1 MOL1         0.0314
       6    H4      18.717251   19.292108   20.384743 H          1 MOL1         0.0999
       7    H5      20.245596   20.137125   20.685211 H          1 MOL1         0.0999
       8    C2      19.997704   18.315535   21.836465 C.3        1 MOL1        -0.1308
       9    H6      19.569281   17.315737   21.685683 H          1 MOL1         0.1025
      10    H7      21.072489   18.174035   22.011688 H          1 MOL1         0.1025
      11    C3      19.348916   18.958008   23.084788 C.3        1 MOL1        -0.1243
      12    H8      19.465188   18.275743   23.938589 H          1 MOL1         0.1025
      13    H9      18.267335   19.069790   22.923950 H          1 MOL1         0.1025
      14    C4      19.964274   20.329007   23.447625 C.3        1 MOL1        -0.2258
      15    H10     21.047131   20.246085   23.607845 H          1 MOL1         0.1036
      16    H11     19.518088   20.718711   24.371776 H          1 MOL1         0.1036
      17    H12     19.790346   21.070945   22.658088 H          1 MOL1         0.1036
@<TRIPOS>BOND
    1     1     2    1
    2     1     3    1
    3     1     4    1
    4     1     5    1
    5     5     6    1
    6     5     7    1
    7     5     8    1
    8     8     9    1
    9     8    10    1
   10     8    11    1
   11    11    12    1
   12    11    13    1
   13    11    14    1
   14    14    15    1
   15    14    16    1
   16    14    17    1
@<TRIPOS>SUBSTRUCTURE
       1 MOL1            1 RESIDUE      1      MOL     
@<SCITEGIC>MOL_PROPERTY
VConf Rank
SciTegic.value.IntegerValue
572

@<SCITEGIC>MOL_PROPERTY
Conf_Id
SciTegic.value.IntegerValue
36

@<SCITEGIC>MOL_PROPERTY
Delta U+W
SciTegic.value.DoubleValue
0.275

@<SCITEGIC>MOL_PROPERTY
U+W
SciTegic.value.DoubleValue
-15.590

@<SCITEGIC>MOL_PROPERTY
Grad RMS
SciTegic.value.DoubleValue
0.000000

@<SCITEGIC>MOL_PROPERTY
U
SciTegic.value.DoubleValue
45.174

@<SCITEGIC>MOL_PROPERTY
W
SciTegic.value.DoubleValue
-60.765

@<SCITEGIC>MOL_PROPERTY
W(PB)
SciTegic.value.DoubleValue
-62.518

@<SCITEGIC>MOL_PROPERTY
W(SA)
SciTegic.value.DoubleValue
1.754

@<SCITEGIC>MOL_PROPERTY
Valence
SciTegic.value.DoubleValue
1.161

@<SCITEGIC>MOL_PROPERTY
Coulomb
SciTegic.value.DoubleValue
43.789

@<SCITEGIC>MOL_PROPERTY
VdW
SciTegic.value.DoubleValue
0.224

@<SCITEGIC>MOL_PROPERTY
VdW6
SciTegic.value.DoubleValue
-2.897

@<SCITEGIC>MOL_PROPERTY
VdW12
SciTegic.value.DoubleValue
3.121

@<SCITEGIC>MOL_PROPERTY
Bond
SciTegic.value.DoubleValue
0.100

@<SCITEGIC>MOL_PROPERTY
Angle
SciTegic.value.DoubleValue
0.500

@<SCITEGIC>MOL_PROPERTY
Pdih
SciTegic.value.DoubleValue
0.561

@<SCITEGIC>MOL_PROPERTY
Idih
SciTegic.value.DoubleValue
0.000

@<SCITEGIC>MOL_PROPERTY
Tether
SciTegic.value.DoubleValue
0.000

@<TRIPOS>MOLECULE
guest-1_confgen4.mol2 : confsearch ligand conformer 573
          17          16           1
SMALL
USER_CHARGES
 
@<TRIPOS>ATOM
       1    N1      20.889122   18.930505   23.197735 N.4        1 MOL1        -0.5891
       2    H1      20.424300   18.038519   23.010265 H          1 MOL1         0.3726
       3    H2      20.317178   19.429574   23.885695 H          1 MOL1         0.3726
       4    H3      21.782275   18.716382   23.652985 H          1 MOL1         0.3726
       5    C1      21.081845   19.741308   21.930657 C.3        1 MOL1         0.0314
       6    H4      21.752505   19.191987   21.264501 H          1 MOL1         0.0999
       7    H5      21.579190   20.671461   22.218757 H          1 MOL1         0.0999
       8    C2      19.771650   20.080564   21.189100 C.3        1 MOL1        -0.1308
       9    H6      19.006597   20.404179   21.907220 H          1 MOL1         0.1025
      10    H7      19.966441   20.948401   20.545081 H          1 MOL1         0.1025
      11    C3      19.224054   18.937921   20.296233 C.3        1 MOL1        -0.1243
      12    H8      19.975308   18.666445   19.541289 H          1 MOL1         0.1025
      13    H9      18.357257   19.319662   19.738624 H          1 MOL1         0.1025
      14    C4      18.792111   17.672383   21.071294 C.3        1 MOL1        -0.2258
      15    H10     19.656822   17.133687   21.475964 H          1 MOL1         0.1036
      16    H11     18.264190   16.979009   20.403696 H          1 MOL1         0.1036
      17    H12     18.112354   17.922731   21.896164 H          1 MOL1         0.1036
@<TRIPOS>BOND
    1     1     2    1
    2     1     3    1
    3     1     4    1
    4     1     5    1
    5     5     6    1
    6     5     7    1
    7     5     8    1
    8     8     9    1
    9     8    10    1
   10     8    11    1
   11    11    12    1
   12    11    13    1
   13    11    14    1
   14    14    15    1
   15    14    16    1
   16    14    17    1
@<TRIPOS>SUBSTRUCTURE
       1 MOL1            1 RESIDUE      1      MOL     
@<SCITEGIC>MOL_PROPERTY
VConf Rank
SciTegic.value.IntegerValue
573

@<SCITEGIC>MOL_PROPERTY
Conf_Id
SciTegic.value.IntegerValue
19

@<SCITEGIC>MOL_PROPERTY
Delta U+W
SciTegic.value.DoubleValue
2.662

@<SCITEGIC>MOL_PROPERTY
U+W
SciTegic.value.DoubleValue
-13.203

@<SCITEGIC>MOL_PROPERTY
Grad RMS
SciTegic.value.DoubleValue
0.000000

@<SCITEGIC>MOL_PROPERTY
U
SciTegic.value.DoubleValue
47.423

@<SCITEGIC>MOL_PROPERTY
W
SciTegic.value.DoubleValue
-60.626

@<SCITEGIC>MOL_PROPERTY
W(PB)
SciTegic.value.DoubleValue
-62.328

@<SCITEGIC>MOL_PROPERTY
W(SA)
SciTegic.value.DoubleValue
1.702

@<SCITEGIC>MOL_PROPERTY
Valence
SciTegic.value.DoubleValue
2.414

@<SCITEGIC>MOL_PROPERTY
Coulomb
SciTegic.value.DoubleValue
44.831

@<SCITEGIC>MOL_PROPERTY
VdW
SciTegic.value.DoubleValue
0.178

@<SCITEGIC>MOL_PROPERTY
VdW6
SciTegic.value.DoubleValue
-3.743

@<SCITEGIC>MOL_PROPERTY
VdW12
SciTegic.value.DoubleValue
3.921

@<SCITEGIC>MOL_PROPERTY
Bond
SciTegic.value.DoubleValue
0.138

@<SCITEGIC>MOL_PROPERTY
Angle
SciTegic.value.DoubleValue
0.941

@<SCITEGIC>MOL_PROPERTY
Pdih
SciTegic.value.DoubleValue
1.335

@<SCITEGIC>MOL_PROPERTY
Idih
SciTegic.value.DoubleValue
0.000

@<SCITEGIC>MOL_PROPERTY
Tether
SciTegic.value.DoubleValue
0.000

@<TRIPOS>MOLECULE
guest-1_confgen4.mol2 : confsearch ligand conformer 574
          17          16           1
SMALL
USER_CHARGES
 
@<TRIPOS>ATOM
       1    N1      18.404966   18.445772   20.652481 N.4        1 MOL1        -0.5891
       2    H1      17.746268   18.623433   19.887382 H          1 MOL1         0.3726
       3    H2      18.026281   17.663527   21.194856 H          1 MOL1         0.3726
       4    H3      19.279117   18.123480   20.229596 H          1 MOL1         0.3726
       5    C1      18.616715   19.677201   21.512006 C.3        1 MOL1         0.0314
       6    H4      17.641574   19.951389   21.923661 H          1 MOL1         0.0999
       7    H5      18.954763   20.495493   20.870583 H          1 MOL1         0.0999
       8    C2      19.614068   19.477000   22.672531 C.3        1 MOL1        -0.1308
       9    H6      19.412345   20.251154   23.424754 H          1 MOL1         0.1025
      10    H7      19.423594   18.516826   23.170039 H          1 MOL1         0.1025
      11    C3      21.105441   19.586258   22.264397 C.3        1 MOL1        -0.1243
      12    H8      21.718178   19.534221   23.175350 H          1 MOL1         0.1025
      13    H9      21.296993   20.575582   21.825572 H          1 MOL1         0.1025
      14    C4      21.582590   18.488170   21.286946 C.3        1 MOL1        -0.2258
      15    H10     21.320043   17.487086   21.653079 H          1 MOL1         0.1036
      16    H11     22.674045   18.526149   21.175421 H          1 MOL1         0.1036
      17    H12     21.152232   18.624104   20.287950 H          1 MOL1         0.1036
@<TRIPOS>BOND
    1     1     2    1
    2     1     3    1
    3     1     4    1
    4     1     5    1
    5     5     6    1
    6     5     7    1
    7     5     8    1
    8     8     9    1
    9     8    10    1
   10     8    11    1
   11    11    12    1
   12    11    13    1
   13    11    14    1
   14    14    15    1
   15    14    16    1
   16    14    17    1
@<TRIPOS>SUBSTRUCTURE
       1 MOL1            1 RESIDUE      1      MOL     
@<SCITEGIC>MOL_PROPERTY
VConf Rank
SciTegic.value.IntegerValue
574

@<SCITEGIC>MOL_PROPERTY
Conf_Id
SciTegic.value.IntegerValue
44

@<SCITEGIC>MOL_PROPERTY
Delta U+W
SciTegic.value.DoubleValue
2.712

@<SCITEGIC>MOL_PROPERTY
U+W
SciTegic.value.DoubleValue
-13.153

@<SCITEGIC>MOL_PROPERTY
Grad RMS
SciTegic.value.DoubleValue
0.000000

@<SCITEGIC>MOL_PROPERTY
U
SciTegic.value.DoubleValue
47.423

@<SCITEGIC>MOL_PROPERTY
W
SciTegic.value.DoubleValue
-60.576

@<SCITEGIC>MOL_PROPERTY
W(PB)
SciTegic.value.DoubleValue
-62.262

@<SCITEGIC>MOL_PROPERTY
W(SA)
SciTegic.value.DoubleValue
1.687

@<SCITEGIC>MOL_PROPERTY
Valence
SciTegic.value.DoubleValue
2.414

@<SCITEGIC>MOL_PROPERTY
Coulomb
SciTegic.value.DoubleValue
44.831

@<SCITEGIC>MOL_PROPERTY
VdW
SciTegic.value.DoubleValue
0.178

@<SCITEGIC>MOL_PROPERTY
VdW6
SciTegic.value.DoubleValue
-3.743

@<SCITEGIC>MOL_PROPERTY
VdW12
SciTegic.value.DoubleValue
3.922

@<SCITEGIC>MOL_PROPERTY
Bond
SciTegic.value.DoubleValue
0.138

@<SCITEGIC>MOL_PROPERTY
Angle
SciTegic.value.DoubleValue
0.941

@<SCITEGIC>MOL_PROPERTY
Pdih
SciTegic.value.DoubleValue
1.335

@<SCITEGIC>MOL_PROPERTY
Idih
SciTegic.value.DoubleValue
0.000

@<SCITEGIC>MOL_PROPERTY
Tether
SciTegic.value.DoubleValue
0.000

@<TRIPOS>MOLECULE
guest-1_confgen4.mol2 : confsearch ligand conformer 575
          17          16           1
SMALL
USER_CHARGES
 
@<TRIPOS>ATOM
       1    N1      19.864921   19.027016   23.584791 N.4        1 MOL1        -0.5891
       2    H1      20.440947   19.825651   23.304037 H          1 MOL1         0.3726
       3    H2      20.496140   18.320276   23.973972 H          1 MOL1         0.3726
       4    H3      19.265386   19.345758   24.352664 H          1 MOL1         0.3726
       5    C1      19.053909   18.483670   22.424234 C.3        1 MOL1         0.0314
       6    H4      18.384398   19.275258   22.077899 H          1 MOL1         0.0999
       7    H5      18.438945   17.662845   22.803184 H          1 MOL1         0.0999
       8    C2      19.913028   17.976984   21.247330 C.3        1 MOL1        -0.1308
       9    H6      20.552582   17.155140   21.595603 H          1 MOL1         0.1025
      10    H7      19.248130   17.545779   20.487214 H          1 MOL1         0.1025
      11    C3      20.792846   19.071054   20.592740 C.3        1 MOL1        -0.1243
      12    H8      21.375866   18.616516   19.779483 H          1 MOL1         0.1025
      13    H9      21.526974   19.448826   21.317308 H          1 MOL1         0.1025
      14    C4      19.969951   20.249176   20.022943 C.3        1 MOL1        -0.2258
      15    H10     19.228562   19.896631   19.294162 H          1 MOL1         0.1036
      16    H11     20.626235   20.965960   19.512570 H          1 MOL1         0.1036
      17    H12     19.439822   20.792224   20.815415 H          1 MOL1         0.1036
@<TRIPOS>BOND
    1     1     2    1
    2     1     3    1
    3     1     4    1
    4     1     5    1
    5     5     6    1
    6     5     7    1
    7     5     8    1
    8     8     9    1
    9     8    10    1
   10     8    11    1
   11    11    12    1
   12    11    13    1
   13    11    14    1
   14    14    15    1
   15    14    16    1
   16    14    17    1
@<TRIPOS>SUBSTRUCTURE
       1 MOL1            1 RESIDUE      1      MOL     
@<SCITEGIC>MOL_PROPERTY
VConf Rank
SciTegic.value.IntegerValue
575

@<SCITEGIC>MOL_PROPERTY
Conf_Id
SciTegic.value.IntegerValue
1

@<SCITEGIC>MOL_PROPERTY
Delta U+W
SciTegic.value.DoubleValue
0.685

@<SCITEGIC>MOL_PROPERTY
U+W
SciTegic.value.DoubleValue
-15.179

@<SCITEGIC>MOL_PROPERTY
Grad RMS
SciTegic.value.DoubleValue
0.000000

@<SCITEGIC>MOL_PROPERTY
U
SciTegic.value.DoubleValue
45.697

@<SCITEGIC>MOL_PROPERTY
W
SciTegic.value.DoubleValue
-60.876

@<SCITEGIC>MOL_PROPERTY
W(PB)
SciTegic.value.DoubleValue
-62.586

@<SCITEGIC>MOL_PROPERTY
W(SA)
SciTegic.value.DoubleValue
1.710

@<SCITEGIC>MOL_PROPERTY
Valence
SciTegic.value.DoubleValue
1.263

@<SCITEGIC>MOL_PROPERTY
Coulomb
SciTegic.value.DoubleValue
44.179

@<SCITEGIC>MOL_PROPERTY
VdW
SciTegic.value.DoubleValue
0.255

@<SCITEGIC>MOL_PROPERTY
VdW6
SciTegic.value.DoubleValue
-3.552

@<SCITEGIC>MOL_PROPERTY
VdW12
SciTegic.value.DoubleValue
3.807

@<SCITEGIC>MOL_PROPERTY
Bond
SciTegic.value.DoubleValue
0.125

@<SCITEGIC>MOL_PROPERTY
Angle
SciTegic.value.DoubleValue
0.616

@<SCITEGIC>MOL_PROPERTY
Pdih
SciTegic.value.DoubleValue
0.521

@<SCITEGIC>MOL_PROPERTY
Idih
SciTegic.value.DoubleValue
0.000

@<SCITEGIC>MOL_PROPERTY
Tether
SciTegic.value.DoubleValue
0.000

@<TRIPOS>MOLECULE
guest-1_confgen4.mol2 : confsearch ligand conformer 576
          17          16           1
SMALL
USER_CHARGES
 
@<TRIPOS>ATOM
       1    N1      21.505487   20.217717   21.795677 N.4        1 MOL1        -0.5891
       2    H1      21.389256   21.088275   21.268424 H          1 MOL1         0.3726
       3    H2      21.759096   19.488214   21.123400 H          1 MOL1         0.3726
       4    H3      22.312960   20.349329   22.413199 H          1 MOL1         0.3726
       5    C1      20.254457   19.855431   22.572550 C.3        1 MOL1         0.0314
       6    H4      20.066161   20.656279   23.292775 H          1 MOL1         0.0999
       7    H5      20.456054   18.938404   23.132216 H          1 MOL1         0.0999
       8    C2      19.006145   19.660820   21.687246 C.3        1 MOL1        -0.1308
       9    H6      18.142017   19.466563   22.336361 H          1 MOL1         0.1025
      10    H7      18.787927   20.599328   21.160623 H          1 MOL1         0.1025
      11    C3      19.137516   18.511725   20.656770 C.3        1 MOL1        -0.1243
      12    H8      19.940785   18.735742   19.941767 H          1 MOL1         0.1025
      13    H9      18.212143   18.458635   20.066202 H          1 MOL1         0.1025
      14    C4      19.393753   17.135886   21.313434 C.3        1 MOL1        -0.2258
      15    H10     19.414419   16.344286   20.553230 H          1 MOL1         0.1036
      16    H11     18.602295   16.888438   22.032760 H          1 MOL1         0.1036
      17    H12     20.355516   17.112966   21.841105 H          1 MOL1         0.1036
@<TRIPOS>BOND
    1     1     2    1
    2     1     3    1
    3     1     4    1
    4     1     5    1
    5     5     6    1
    6     5     7    1
    7     5     8    1
    8     8     9    1
    9     8    10    1
   10     8    11    1
   11    11    12    1
   12    11    13    1
   13    11    14    1
   14    14    15    1
   15    14    16    1
   16    14    17    1
@<TRIPOS>SUBSTRUCTURE
       1 MOL1            1 RESIDUE      1      MOL     
@<SCITEGIC>MOL_PROPERTY
VConf Rank
SciTegic.value.IntegerValue
576

@<SCITEGIC>MOL_PROPERTY
Conf_Id
SciTegic.value.IntegerValue
43

@<SCITEGIC>MOL_PROPERTY
Delta U+W
SciTegic.value.DoubleValue
0.642

@<SCITEGIC>MOL_PROPERTY
U+W
SciTegic.value.DoubleValue
-15.222

@<SCITEGIC>MOL_PROPERTY
Grad RMS
SciTegic.value.DoubleValue
0.000000

@<SCITEGIC>MOL_PROPERTY
U
SciTegic.value.DoubleValue
45.697

@<SCITEGIC>MOL_PROPERTY
W
SciTegic.value.DoubleValue
-60.919

@<SCITEGIC>MOL_PROPERTY
W(PB)
SciTegic.value.DoubleValue
-62.631

@<SCITEGIC>MOL_PROPERTY
W(SA)
SciTegic.value.DoubleValue
1.712

@<SCITEGIC>MOL_PROPERTY
Valence
SciTegic.value.DoubleValue
1.262

@<SCITEGIC>MOL_PROPERTY
Coulomb
SciTegic.value.DoubleValue
44.179

@<SCITEGIC>MOL_PROPERTY
VdW
SciTegic.value.DoubleValue
0.255

@<SCITEGIC>MOL_PROPERTY
VdW6
SciTegic.value.DoubleValue
-3.552

@<SCITEGIC>MOL_PROPERTY
VdW12
SciTegic.value.DoubleValue
3.807

@<SCITEGIC>MOL_PROPERTY
Bond
SciTegic.value.DoubleValue
0.125

@<SCITEGIC>MOL_PROPERTY
Angle
SciTegic.value.DoubleValue
0.616

@<SCITEGIC>MOL_PROPERTY
Pdih
SciTegic.value.DoubleValue
0.521

@<SCITEGIC>MOL_PROPERTY
Idih
SciTegic.value.DoubleValue
0.000

@<SCITEGIC>MOL_PROPERTY
Tether
SciTegic.value.DoubleValue
0.000

@<TRIPOS>MOLECULE
guest-1_confgen4.mol2 : confsearch ligand conformer 577
          17          16           1
SMALL
USER_CHARGES
 
@<TRIPOS>ATOM
       1    N1      21.467592   18.187432   23.484204 N.4        1 MOL1        -0.5891
       2    H1      21.899187   19.082437   23.733977 H          1 MOL1         0.3726
       3    H2      22.137440   17.684929   22.893872 H          1 MOL1         0.3726
       4    H3      21.376475   17.649989   24.352398 H          1 MOL1         0.3726
       5    C1      20.131052   18.374353   22.794220 C.3        1 MOL1         0.0314
       6    H4      19.460813   18.886736   23.489754 H          1 MOL1         0.0999
       7    H5      19.716986   17.383956   22.586406 H          1 MOL1         0.0999
       8    C2      20.231282   19.178367   21.485107 C.3        1 MOL1        -0.1308
       9    H6      20.661816   20.166514   21.695336 H          1 MOL1         0.1025
      10    H7      20.916982   18.668835   20.795047 H          1 MOL1         0.1025
      11    C3      18.849631   19.345588   20.815330 C.3        1 MOL1        -0.1243
      12    H8      18.161836   19.852609   21.506845 H          1 MOL1         0.1025
      13    H9      18.416721   18.356772   20.607588 H          1 MOL1         0.1025
      14    C4      18.942311   20.151254   19.501455 C.3        1 MOL1        -0.2258
      15    H10     17.951290   20.258813   19.041719 H          1 MOL1         0.1036
      16    H11     19.596915   19.650717   18.776084 H          1 MOL1         0.1036
      17    H12     19.340078   21.158345   19.682442 H          1 MOL1         0.1036
@<TRIPOS>BOND
    1     1     2    1
    2     1     3    1
    3     1     4    1
    4     1     5    1
    5     5     6    1
    6     5     7    1
    7     5     8    1
    8     8     9    1
    9     8    10    1
   10     8    11    1
   11    11    12    1
   12    11    13    1
   13    11    14    1
   14    14    15    1
   15    14    16    1
   16    14    17    1
@<TRIPOS>SUBSTRUCTURE
       1 MOL1            1 RESIDUE      1      MOL     
@<SCITEGIC>MOL_PROPERTY
VConf Rank
SciTegic.value.IntegerValue
577

@<SCITEGIC>MOL_PROPERTY
Conf_Id
SciTegic.value.IntegerValue
7

@<SCITEGIC>MOL_PROPERTY
Delta U+W
SciTegic.value.DoubleValue
0.000

@<SCITEGIC>MOL_PROPERTY
U+W
SciTegic.value.DoubleValue
-15.865

@<SCITEGIC>MOL_PROPERTY
Grad RMS
SciTegic.value.DoubleValue
0.000000

@<SCITEGIC>MOL_PROPERTY
U
SciTegic.value.DoubleValue
44.664

@<SCITEGIC>MOL_PROPERTY
W
SciTegic.value.DoubleValue
-60.529

@<SCITEGIC>MOL_PROPERTY
W(PB)
SciTegic.value.DoubleValue
-62.309

@<SCITEGIC>MOL_PROPERTY
W(SA)
SciTegic.value.DoubleValue
1.780

@<SCITEGIC>MOL_PROPERTY
Valence
SciTegic.value.DoubleValue
0.872

@<SCITEGIC>MOL_PROPERTY
Coulomb
SciTegic.value.DoubleValue
43.648

@<SCITEGIC>MOL_PROPERTY
VdW
SciTegic.value.DoubleValue
0.144

@<SCITEGIC>MOL_PROPERTY
VdW6
SciTegic.value.DoubleValue
-2.370

@<SCITEGIC>MOL_PROPERTY
VdW12
SciTegic.value.DoubleValue
2.515

@<SCITEGIC>MOL_PROPERTY
Bond
SciTegic.value.DoubleValue
0.080

@<SCITEGIC>MOL_PROPERTY
Angle
SciTegic.value.DoubleValue
0.376

@<SCITEGIC>MOL_PROPERTY
Pdih
SciTegic.value.DoubleValue
0.416

@<SCITEGIC>MOL_PROPERTY
Idih
SciTegic.value.DoubleValue
0.000

@<SCITEGIC>MOL_PROPERTY
Tether
SciTegic.value.DoubleValue
0.000

@<TRIPOS>MOLECULE
guest-1_confgen4.mol2 : confsearch ligand conformer 578
          17          16           1
SMALL
USER_CHARGES
 
@<TRIPOS>ATOM
       1    N1      19.504947   16.957190   22.656265 N.4        1 MOL1        -0.5891
       2    H1      20.283398   16.736802   23.284828 H          1 MOL1         0.3726
       3    H2      19.617365   16.373046   21.822128 H          1 MOL1         0.3726
       4    H3      18.648453   16.643844   23.124321 H          1 MOL1         0.3726
       5    C1      19.452379   18.432609   22.313143 C.3        1 MOL1         0.0314
       6    H4      19.301707   18.990287   23.241421 H          1 MOL1         0.0999
       7    H5      18.584280   18.597001   21.669545 H          1 MOL1         0.0999
       8    C2      20.725650   18.937131   21.607312 C.3        1 MOL1        -0.1308
       9    H6      21.595925   18.731064   22.244522 H          1 MOL1         0.1025
      10    H7      20.877883   18.375855   20.675818 H          1 MOL1         0.1025
      11    C3      20.675800   20.451664   21.297942 C.3        1 MOL1        -0.1243
      12    H8      21.640250   20.760687   20.870951 H          1 MOL1         0.1025
      13    H9      20.556837   21.016941   22.233084 H          1 MOL1         0.1025
      14    C4      19.544602   20.830631   20.314716 C.3        1 MOL1        -0.2258
      15    H10     19.636921   20.274294   19.372861 H          1 MOL1         0.1036
      16    H11     19.584586   21.901396   20.076236 H          1 MOL1         0.1036
      17    H12     18.554399   20.623332   20.739705 H          1 MOL1         0.1036
@<TRIPOS>BOND
    1     1     2    1
    2     1     3    1
    3     1     4    1
    4     1     5    1
    5     5     6    1
    6     5     7    1
    7     5     8    1
    8     8     9    1
    9     8    10    1
   10     8    11    1
   11    11    12    1
   12    11    13    1
   13    11    14    1
   14    14    15    1
   15    14    16    1
   16    14    17    1
@<TRIPOS>SUBSTRUCTURE
       1 MOL1            1 RESIDUE      1      MOL     
@<SCITEGIC>MOL_PROPERTY
VConf Rank
SciTegic.value.IntegerValue
578

@<SCITEGIC>MOL_PROPERTY
Conf_Id
SciTegic.value.IntegerValue
36

@<SCITEGIC>MOL_PROPERTY
Delta U+W
SciTegic.value.DoubleValue
0.275

@<SCITEGIC>MOL_PROPERTY
U+W
SciTegic.value.DoubleValue
-15.590

@<SCITEGIC>MOL_PROPERTY
Grad RMS
SciTegic.value.DoubleValue
0.000000

@<SCITEGIC>MOL_PROPERTY
U
SciTegic.value.DoubleValue
45.174

@<SCITEGIC>MOL_PROPERTY
W
SciTegic.value.DoubleValue
-60.765

@<SCITEGIC>MOL_PROPERTY
W(PB)
SciTegic.value.DoubleValue
-62.518

@<SCITEGIC>MOL_PROPERTY
W(SA)
SciTegic.value.DoubleValue
1.754

@<SCITEGIC>MOL_PROPERTY
Valence
SciTegic.value.DoubleValue
1.161

@<SCITEGIC>MOL_PROPERTY
Coulomb
SciTegic.value.DoubleValue
43.789

@<SCITEGIC>MOL_PROPERTY
VdW
SciTegic.value.DoubleValue
0.224

@<SCITEGIC>MOL_PROPERTY
VdW6
SciTegic.value.DoubleValue
-2.897

@<SCITEGIC>MOL_PROPERTY
VdW12
SciTegic.value.DoubleValue
3.121

@<SCITEGIC>MOL_PROPERTY
Bond
SciTegic.value.DoubleValue
0.100

@<SCITEGIC>MOL_PROPERTY
Angle
SciTegic.value.DoubleValue
0.500

@<SCITEGIC>MOL_PROPERTY
Pdih
SciTegic.value.DoubleValue
0.561

@<SCITEGIC>MOL_PROPERTY
Idih
SciTegic.value.DoubleValue
0.000

@<SCITEGIC>MOL_PROPERTY
Tether
SciTegic.value.DoubleValue
0.000

@<TRIPOS>MOLECULE
guest-1_confgen4.mol2 : confsearch ligand conformer 579
          17          16           1
SMALL
USER_CHARGES
 
@<TRIPOS>ATOM
       1    N1      20.760872   17.584514   22.501896 N.4        1 MOL1        -0.5891
       2    H1      19.759186   17.413182   22.383089 H          1 MOL1         0.3726
       3    H2      20.899172   17.908132   23.463990 H          1 MOL1         0.3726
       4    H3      21.234254   16.678783   22.422007 H          1 MOL1         0.3726
       5    C1      21.283957   18.585674   21.489922 C.3        1 MOL1         0.0314
       6    H4      21.172912   18.159521   20.489240 H          1 MOL1         0.0999
       7    H5      22.352104   18.711211   21.687001 H          1 MOL1         0.0999
       8    C2      20.596186   19.965920   21.549123 C.3        1 MOL1        -0.1308
       9    H6      20.485151   20.285736   22.593688 H          1 MOL1         0.1025
      10    H7      21.269542   20.695956   21.080628 H          1 MOL1         0.1025
      11    C3      19.232384   20.036453   20.815792 C.3        1 MOL1        -0.1243
      12    H8      19.368224   19.775312   19.756843 H          1 MOL1         0.1025
      13    H9      18.885735   21.079352   20.829412 H          1 MOL1         0.1025
      14    C4      18.130058   19.143408   21.429167 C.3        1 MOL1        -0.2258
      15    H10     18.330030   18.079918   21.254018 H          1 MOL1         0.1036
      16    H11     17.158679   19.368450   20.969889 H          1 MOL1         0.1036
      17    H12     18.034750   19.313194   22.509557 H          1 MOL1         0.1036
@<TRIPOS>BOND
    1     1     2    1
    2     1     3    1
    3     1     4    1
    4     1     5    1
    5     5     6    1
    6     5     7    1
    7     5     8    1
    8     8     9    1
    9     8    10    1
   10     8    11    1
   11    11    12    1
   12    11    13    1
   13    11    14    1
   14    14    15    1
   15    14    16    1
   16    14    17    1
@<TRIPOS>SUBSTRUCTURE
       1 MOL1            1 RESIDUE      1      MOL     
@<SCITEGIC>MOL_PROPERTY
VConf Rank
SciTegic.value.IntegerValue
579

@<SCITEGIC>MOL_PROPERTY
Conf_Id
SciTegic.value.IntegerValue
19

@<SCITEGIC>MOL_PROPERTY
Delta U+W
SciTegic.value.DoubleValue
2.662

@<SCITEGIC>MOL_PROPERTY
U+W
SciTegic.value.DoubleValue
-13.203

@<SCITEGIC>MOL_PROPERTY
Grad RMS
SciTegic.value.DoubleValue
0.000000

@<SCITEGIC>MOL_PROPERTY
U
SciTegic.value.DoubleValue
47.423

@<SCITEGIC>MOL_PROPERTY
W
SciTegic.value.DoubleValue
-60.626

@<SCITEGIC>MOL_PROPERTY
W(PB)
SciTegic.value.DoubleValue
-62.328

@<SCITEGIC>MOL_PROPERTY
W(SA)
SciTegic.value.DoubleValue
1.702

@<SCITEGIC>MOL_PROPERTY
Valence
SciTegic.value.DoubleValue
2.414

@<SCITEGIC>MOL_PROPERTY
Coulomb
SciTegic.value.DoubleValue
44.831

@<SCITEGIC>MOL_PROPERTY
VdW
SciTegic.value.DoubleValue
0.178

@<SCITEGIC>MOL_PROPERTY
VdW6
SciTegic.value.DoubleValue
-3.743

@<SCITEGIC>MOL_PROPERTY
VdW12
SciTegic.value.DoubleValue
3.921

@<SCITEGIC>MOL_PROPERTY
Bond
SciTegic.value.DoubleValue
0.138

@<SCITEGIC>MOL_PROPERTY
Angle
SciTegic.value.DoubleValue
0.941

@<SCITEGIC>MOL_PROPERTY
Pdih
SciTegic.value.DoubleValue
1.335

@<SCITEGIC>MOL_PROPERTY
Idih
SciTegic.value.DoubleValue
0.000

@<SCITEGIC>MOL_PROPERTY
Tether
SciTegic.value.DoubleValue
0.000

@<TRIPOS>MOLECULE
guest-1_confgen4.mol2 : confsearch ligand conformer 580
          17          16           1
SMALL
USER_CHARGES
 
@<TRIPOS>ATOM
       1    N1      19.049072   18.062857   22.929404 N.4        1 MOL1        -0.5891
       2    H1      18.222804   17.955567   23.526558 H          1 MOL1         0.3726
       3    H2      19.763868   17.426036   23.294106 H          1 MOL1         0.3726
       4    H3      18.793760   17.726630   21.997411 H          1 MOL1         0.3726
       5    C1      19.537740   19.498147   22.894976 C.3        1 MOL1         0.0314
       6    H4      19.789164   19.775091   23.922412 H          1 MOL1         0.0999
       7    H5      18.715266   20.138060   22.564294 H          1 MOL1         0.0999
       8    C2      20.771354   19.726944   21.996388 C.3        1 MOL1        -0.1308
       9    H6      21.258979   20.653754   22.326678 H          1 MOL1         0.1025
      10    H7      21.506042   18.926678   22.156187 H          1 MOL1         0.1025
      11    C3      20.449374   19.869709   20.486868 C.3        1 MOL1        -0.1243
      12    H8      21.376653   20.132607   19.958637 H          1 MOL1         0.1025
      13    H9      19.762677   20.714107   20.333697 H          1 MOL1         0.1025
      14    C4      19.856120   18.599028   19.837022 C.3        1 MOL1        -0.2258
      15    H10     20.471845   17.716207   20.053035 H          1 MOL1         0.1036
      16    H11     19.811448   18.714894   18.746272 H          1 MOL1         0.1036
      17    H12     18.833045   18.410528   20.182659 H          1 MOL1         0.1036
@<TRIPOS>BOND
    1     1     2    1
    2     1     3    1
    3     1     4    1
    4     1     5    1
    5     5     6    1
    6     5     7    1
    7     5     8    1
    8     8     9    1
    9     8    10    1
   10     8    11    1
   11    11    12    1
   12    11    13    1
   13    11    14    1
   14    14    15    1
   15    14    16    1
   16    14    17    1
@<TRIPOS>SUBSTRUCTURE
       1 MOL1            1 RESIDUE      1      MOL     
@<SCITEGIC>MOL_PROPERTY
VConf Rank
SciTegic.value.IntegerValue
580

@<SCITEGIC>MOL_PROPERTY
Conf_Id
SciTegic.value.IntegerValue
44

@<SCITEGIC>MOL_PROPERTY
Delta U+W
SciTegic.value.DoubleValue
2.712

@<SCITEGIC>MOL_PROPERTY
U+W
SciTegic.value.DoubleValue
-13.153

@<SCITEGIC>MOL_PROPERTY
Grad RMS
SciTegic.value.DoubleValue
0.000000

@<SCITEGIC>MOL_PROPERTY
U
SciTegic.value.DoubleValue
47.423

@<SCITEGIC>MOL_PROPERTY
W
SciTegic.value.DoubleValue
-60.576

@<SCITEGIC>MOL_PROPERTY
W(PB)
SciTegic.value.DoubleValue
-62.262

@<SCITEGIC>MOL_PROPERTY
W(SA)
SciTegic.value.DoubleValue
1.687

@<SCITEGIC>MOL_PROPERTY
Valence
SciTegic.value.DoubleValue
2.414

@<SCITEGIC>MOL_PROPERTY
Coulomb
SciTegic.value.DoubleValue
44.831

@<SCITEGIC>MOL_PROPERTY
VdW
SciTegic.value.DoubleValue
0.178

@<SCITEGIC>MOL_PROPERTY
VdW6
SciTegic.value.DoubleValue
-3.743

@<SCITEGIC>MOL_PROPERTY
VdW12
SciTegic.value.DoubleValue
3.922

@<SCITEGIC>MOL_PROPERTY
Bond
SciTegic.value.DoubleValue
0.138

@<SCITEGIC>MOL_PROPERTY
Angle
SciTegic.value.DoubleValue
0.941

@<SCITEGIC>MOL_PROPERTY
Pdih
SciTegic.value.DoubleValue
1.335

@<SCITEGIC>MOL_PROPERTY
Idih
SciTegic.value.DoubleValue
0.000

@<SCITEGIC>MOL_PROPERTY
Tether
SciTegic.value.DoubleValue
0.000

@<TRIPOS>MOLECULE
guest-1_confgen4.mol2 : confsearch ligand conformer 581
          17          16           1
SMALL
USER_CHARGES
 
@<TRIPOS>ATOM
       1    N1      21.054314   17.560821   20.912120 N.4        1 MOL1        -0.5891
       2    H1      20.082049   17.244726   20.855273 H          1 MOL1         0.3726
       3    H2      21.497599   17.041063   21.675486 H          1 MOL1         0.3726
       4    H3      21.515546   17.267306   20.045067 H          1 MOL1         0.3726
       5    C1      21.146363   19.060171   21.120287 C.3        1 MOL1         0.0314
       6    H4      20.683377   19.551325   20.260510 H          1 MOL1         0.0999
       7    H5      22.205852   19.330075   21.133440 H          1 MOL1         0.0999
       8    C2      20.478261   19.550408   22.421528 C.3        1 MOL1        -0.1308
       9    H6      20.976778   19.082793   23.280928 H          1 MOL1         0.1025
      10    H7      20.650005   20.630582   22.519161 H          1 MOL1         0.1025
      11    C3      18.956863   19.268096   22.493658 C.3        1 MOL1        -0.1243
      12    H8      18.573827   19.636922   23.455508 H          1 MOL1         0.1025
      13    H9      18.773177   18.185093   22.489624 H          1 MOL1         0.1025
      14    C4      18.162246   19.935211   21.347648 C.3        1 MOL1        -0.2258
      15    H10     18.328860   21.020127   21.331389 H          1 MOL1         0.1036
      16    H11     17.085504   19.763919   21.475143 H          1 MOL1         0.1036
      17    H12     18.448024   19.530123   20.368779 H          1 MOL1         0.1036
@<TRIPOS>BOND
    1     1     2    1
    2     1     3    1
    3     1     4    1
    4     1     5    1
    5     5     6    1
    6     5     7    1
    7     5     8    1
    8     8     9    1
    9     8    10    1
   10     8    11    1
   11    11    12    1
   12    11    13    1
   13    11    14    1
   14    14    15    1
   15    14    16    1
   16    14    17    1
@<TRIPOS>SUBSTRUCTURE
       1 MOL1            1 RESIDUE      1      MOL     
@<SCITEGIC>MOL_PROPERTY
VConf Rank
SciTegic.value.IntegerValue
581

@<SCITEGIC>MOL_PROPERTY
Conf_Id
SciTegic.value.IntegerValue
1

@<SCITEGIC>MOL_PROPERTY
Delta U+W
SciTegic.value.DoubleValue
0.685

@<SCITEGIC>MOL_PROPERTY
U+W
SciTegic.value.DoubleValue
-15.179

@<SCITEGIC>MOL_PROPERTY
Grad RMS
SciTegic.value.DoubleValue
0.000000

@<SCITEGIC>MOL_PROPERTY
U
SciTegic.value.DoubleValue
45.697

@<SCITEGIC>MOL_PROPERTY
W
SciTegic.value.DoubleValue
-60.876

@<SCITEGIC>MOL_PROPERTY
W(PB)
SciTegic.value.DoubleValue
-62.586

@<SCITEGIC>MOL_PROPERTY
W(SA)
SciTegic.value.DoubleValue
1.710

@<SCITEGIC>MOL_PROPERTY
Valence
SciTegic.value.DoubleValue
1.263

@<SCITEGIC>MOL_PROPERTY
Coulomb
SciTegic.value.DoubleValue
44.179

@<SCITEGIC>MOL_PROPERTY
VdW
SciTegic.value.DoubleValue
0.255

@<SCITEGIC>MOL_PROPERTY
VdW6
SciTegic.value.DoubleValue
-3.552

@<SCITEGIC>MOL_PROPERTY
VdW12
SciTegic.value.DoubleValue
3.807

@<SCITEGIC>MOL_PROPERTY
Bond
SciTegic.value.DoubleValue
0.125

@<SCITEGIC>MOL_PROPERTY
Angle
SciTegic.value.DoubleValue
0.616

@<SCITEGIC>MOL_PROPERTY
Pdih
SciTegic.value.DoubleValue
0.521

@<SCITEGIC>MOL_PROPERTY
Idih
SciTegic.value.DoubleValue
0.000

@<SCITEGIC>MOL_PROPERTY
Tether
SciTegic.value.DoubleValue
0.000

@<TRIPOS>MOLECULE
guest-1_confgen4.mol2 : confsearch ligand conformer 582
          17          16           1
SMALL
USER_CHARGES
 
@<TRIPOS>ATOM
       1    N1      18.061643   18.530202   21.128937 N.4        1 MOL1        -0.5891
       2    H1      17.964755   17.518640   20.999584 H          1 MOL1         0.3726
       3    H2      18.496410   18.903612   20.280414 H          1 MOL1         0.3726
       4    H3      17.113332   18.916632   21.174164 H          1 MOL1         0.3726
       5    C1      18.867813   18.867461   22.368374 C.3        1 MOL1         0.0314
       6    H4      18.328534   18.472986   23.233883 H          1 MOL1         0.0999
       7    H5      18.906944   19.955800   22.462136 H          1 MOL1         0.0999
       8    C2      20.300156   18.294642   22.354568 C.3        1 MOL1        -0.1308
       9    H6      20.782690   18.532229   23.311916 H          1 MOL1         0.1025
      10    H7      20.249651   17.199028   22.301392 H          1 MOL1         0.1025
      11    C3      21.179844   18.825528   21.195314 C.3        1 MOL1        -0.1243
      12    H8      20.758284   18.516269   20.229239 H          1 MOL1         0.1025
      13    H9      22.170626   18.354087   21.258540 H          1 MOL1         0.1025
      14    C4      21.352131   20.361589   21.220396 C.3        1 MOL1        -0.2258
      15    H10     22.033466   20.685681   20.423078 H          1 MOL1         0.1036
      16    H11     21.773796   20.695792   22.177252 H          1 MOL1         0.1036
      17    H12     20.395912   20.877863   21.068554 H          1 MOL1         0.1036
@<TRIPOS>BOND
    1     1     2    1
    2     1     3    1
    3     1     4    1
    4     1     5    1
    5     5     6    1
    6     5     7    1
    7     5     8    1
    8     8     9    1
    9     8    10    1
   10     8    11    1
   11    11    12    1
   12    11    13    1
   13    11    14    1
   14    14    15    1
   15    14    16    1
   16    14    17    1
@<TRIPOS>SUBSTRUCTURE
       1 MOL1            1 RESIDUE      1      MOL     
@<SCITEGIC>MOL_PROPERTY
VConf Rank
SciTegic.value.IntegerValue
582

@<SCITEGIC>MOL_PROPERTY
Conf_Id
SciTegic.value.IntegerValue
43

@<SCITEGIC>MOL_PROPERTY
Delta U+W
SciTegic.value.DoubleValue
0.642

@<SCITEGIC>MOL_PROPERTY
U+W
SciTegic.value.DoubleValue
-15.222

@<SCITEGIC>MOL_PROPERTY
Grad RMS
SciTegic.value.DoubleValue
0.000000

@<SCITEGIC>MOL_PROPERTY
U
SciTegic.value.DoubleValue
45.697

@<SCITEGIC>MOL_PROPERTY
W
SciTegic.value.DoubleValue
-60.919

@<SCITEGIC>MOL_PROPERTY
W(PB)
SciTegic.value.DoubleValue
-62.631

@<SCITEGIC>MOL_PROPERTY
W(SA)
SciTegic.value.DoubleValue
1.712

@<SCITEGIC>MOL_PROPERTY
Valence
SciTegic.value.DoubleValue
1.262

@<SCITEGIC>MOL_PROPERTY
Coulomb
SciTegic.value.DoubleValue
44.179

@<SCITEGIC>MOL_PROPERTY
VdW
SciTegic.value.DoubleValue
0.255

@<SCITEGIC>MOL_PROPERTY
VdW6
SciTegic.value.DoubleValue
-3.552

@<SCITEGIC>MOL_PROPERTY
VdW12
SciTegic.value.DoubleValue
3.807

@<SCITEGIC>MOL_PROPERTY
Bond
SciTegic.value.DoubleValue
0.125

@<SCITEGIC>MOL_PROPERTY
Angle
SciTegic.value.DoubleValue
0.616

@<SCITEGIC>MOL_PROPERTY
Pdih
SciTegic.value.DoubleValue
0.521

@<SCITEGIC>MOL_PROPERTY
Idih
SciTegic.value.DoubleValue
0.000

@<SCITEGIC>MOL_PROPERTY
Tether
SciTegic.value.DoubleValue
0.000

@<TRIPOS>MOLECULE
guest-1_confgen4.mol2 : confsearch ligand conformer 583
          17          16           1
SMALL
USER_CHARGES
 
@<TRIPOS>ATOM
       1    N1      18.268087   20.688720   20.559264 N.4        1 MOL1        -0.5891
       2    H1      18.587920   21.536289   21.037835 H          1 MOL1         0.3726
       3    H2      17.437540   20.356562   21.058823 H          1 MOL1         0.3726
       4    H3      17.957184   20.975277   19.625383 H          1 MOL1         0.3726
       5    C1      19.351620   19.630955   20.492589 C.3        1 MOL1         0.0314
       6    H4      20.189475   20.041431   19.922474 H          1 MOL1         0.0999
       7    H5      18.952458   18.772852   19.945000 H          1 MOL1         0.0999
       8    C2      19.842453   19.176957   21.879395 C.3        1 MOL1        -0.1308
       9    H6      20.228295   20.043869   22.432188 H          1 MOL1         0.1025
      10    H7      18.995574   18.779523   22.454576 H          1 MOL1         0.1025
      11    C3      20.944368   18.100606   21.766373 C.3        1 MOL1        -0.1243
      12    H8      21.790982   18.496724   21.187874 H          1 MOL1         0.1025
      13    H9      20.559754   17.233895   21.210306 H          1 MOL1         0.1025
      14    C4      21.441739   17.640332   23.153718 C.3        1 MOL1        -0.2258
      15    H10     22.223452   16.876420   23.051678 H          1 MOL1         0.1036
      16    H11     20.623308   17.207207   23.743447 H          1 MOL1         0.1036
      17    H12     21.864199   18.480026   23.720858 H          1 MOL1         0.1036
@<TRIPOS>BOND
    1     1     2    1
    2     1     3    1
    3     1     4    1
    4     1     5    1
    5     5     6    1
    6     5     7    1
    7     5     8    1
    8     8     9    1
    9     8    10    1
   10     8    11    1
   11    11    12    1
   12    11    13    1
   13    11    14    1
   14    14    15    1
   15    14    16    1
   16    14    17    1
@<TRIPOS>SUBSTRUCTURE
       1 MOL1            1 RESIDUE      1      MOL     
@<SCITEGIC>MOL_PROPERTY
VConf Rank
SciTegic.value.IntegerValue
583

@<SCITEGIC>MOL_PROPERTY
Conf_Id
SciTegic.value.IntegerValue
7

@<SCITEGIC>MOL_PROPERTY
Delta U+W
SciTegic.value.DoubleValue
0.000

@<SCITEGIC>MOL_PROPERTY
U+W
SciTegic.value.DoubleValue
-15.865

@<SCITEGIC>MOL_PROPERTY
Grad RMS
SciTegic.value.DoubleValue
0.000000

@<SCITEGIC>MOL_PROPERTY
U
SciTegic.value.DoubleValue
44.664

@<SCITEGIC>MOL_PROPERTY
W
SciTegic.value.DoubleValue
-60.529

@<SCITEGIC>MOL_PROPERTY
W(PB)
SciTegic.value.DoubleValue
-62.309

@<SCITEGIC>MOL_PROPERTY
W(SA)
SciTegic.value.DoubleValue
1.780

@<SCITEGIC>MOL_PROPERTY
Valence
SciTegic.value.DoubleValue
0.872

@<SCITEGIC>MOL_PROPERTY
Coulomb
SciTegic.value.DoubleValue
43.648

@<SCITEGIC>MOL_PROPERTY
VdW
SciTegic.value.DoubleValue
0.144

@<SCITEGIC>MOL_PROPERTY
VdW6
SciTegic.value.DoubleValue
-2.370

@<SCITEGIC>MOL_PROPERTY
VdW12
SciTegic.value.DoubleValue
2.515

@<SCITEGIC>MOL_PROPERTY
Bond
SciTegic.value.DoubleValue
0.080

@<SCITEGIC>MOL_PROPERTY
Angle
SciTegic.value.DoubleValue
0.376

@<SCITEGIC>MOL_PROPERTY
Pdih
SciTegic.value.DoubleValue
0.416

@<SCITEGIC>MOL_PROPERTY
Idih
SciTegic.value.DoubleValue
0.000

@<SCITEGIC>MOL_PROPERTY
Tether
SciTegic.value.DoubleValue
0.000

@<TRIPOS>MOLECULE
guest-1_confgen4.mol2 : confsearch ligand conformer 584
          17          16           1
SMALL
USER_CHARGES
 
@<TRIPOS>ATOM
       1    N1      21.025813   17.410679   22.955579 N.4        1 MOL1        -0.5891
       2    H1      21.125531   17.763219   23.912354 H          1 MOL1         0.3726
       3    H2      21.950253   17.464921   22.517271 H          1 MOL1         0.3726
       4    H3      20.790771   16.415626   23.029531 H          1 MOL1         0.3726
       5    C1      19.980498   18.180193   22.172941 C.3        1 MOL1         0.0314
       6    H4      19.019230   18.054097   22.678384 H          1 MOL1         0.0999
       7    H5      19.906942   17.730996   21.179136 H          1 MOL1         0.0999
       8    C2      20.303414   19.681066   22.042306 C.3        1 MOL1        -0.1308
       9    H6      20.414712   20.113794   23.045420 H          1 MOL1         0.1025
      10    H7      21.269679   19.807653   21.536149 H          1 MOL1         0.1025
      11    C3      19.210279   20.461860   21.275872 C.3        1 MOL1        -0.1243
      12    H8      19.460762   21.531945   21.288473 H          1 MOL1         0.1025
      13    H9      18.248920   20.363605   21.799623 H          1 MOL1         0.1025
      14    C4      19.052388   19.998329   19.809527 C.3        1 MOL1        -0.2258
      15    H10     20.001826   20.080870   19.264662 H          1 MOL1         0.1036
      16    H11     18.311951   20.618212   19.287507 H          1 MOL1         0.1036
      17    H12     18.712412   18.956709   19.750066 H          1 MOL1         0.1036
@<TRIPOS>BOND
    1     1     2    1
    2     1     3    1
    3     1     4    1
    4     1     5    1
    5     5     6    1
    6     5     7    1
    7     5     8    1
    8     8     9    1
    9     8    10    1
   10     8    11    1
   11    11    12    1
   12    11    13    1
   13    11    14    1
   14    14    15    1
   15    14    16    1
   16    14    17    1
@<TRIPOS>SUBSTRUCTURE
       1 MOL1            1 RESIDUE      1      MOL     
@<SCITEGIC>MOL_PROPERTY
VConf Rank
SciTegic.value.IntegerValue
584

@<SCITEGIC>MOL_PROPERTY
Conf_Id
SciTegic.value.IntegerValue
36

@<SCITEGIC>MOL_PROPERTY
Delta U+W
SciTegic.value.DoubleValue
0.275

@<SCITEGIC>MOL_PROPERTY
U+W
SciTegic.value.DoubleValue
-15.590

@<SCITEGIC>MOL_PROPERTY
Grad RMS
SciTegic.value.DoubleValue
0.000000

@<SCITEGIC>MOL_PROPERTY
U
SciTegic.value.DoubleValue
45.174

@<SCITEGIC>MOL_PROPERTY
W
SciTegic.value.DoubleValue
-60.765

@<SCITEGIC>MOL_PROPERTY
W(PB)
SciTegic.value.DoubleValue
-62.518

@<SCITEGIC>MOL_PROPERTY
W(SA)
SciTegic.value.DoubleValue
1.754

@<SCITEGIC>MOL_PROPERTY
Valence
SciTegic.value.DoubleValue
1.161

@<SCITEGIC>MOL_PROPERTY
Coulomb
SciTegic.value.DoubleValue
43.789

@<SCITEGIC>MOL_PROPERTY
VdW
SciTegic.value.DoubleValue
0.224

@<SCITEGIC>MOL_PROPERTY
VdW6
SciTegic.value.DoubleValue
-2.897

@<SCITEGIC>MOL_PROPERTY
VdW12
SciTegic.value.DoubleValue
3.121

@<SCITEGIC>MOL_PROPERTY
Bond
SciTegic.value.DoubleValue
0.100

@<SCITEGIC>MOL_PROPERTY
Angle
SciTegic.value.DoubleValue
0.500

@<SCITEGIC>MOL_PROPERTY
Pdih
SciTegic.value.DoubleValue
0.561

@<SCITEGIC>MOL_PROPERTY
Idih
SciTegic.value.DoubleValue
0.000

@<SCITEGIC>MOL_PROPERTY
Tether
SciTegic.value.DoubleValue
0.000

@<TRIPOS>MOLECULE
guest-1_confgen4.mol2 : confsearch ligand conformer 585
          17          16           1
SMALL
USER_CHARGES
 
@<TRIPOS>ATOM
       1    N1      21.293291   18.328281   20.512886 N.4        1 MOL1        -0.5891
       2    H1      20.800433   19.104380   20.063880 H          1 MOL1         0.3726
       3    H2      20.930413   17.462873   20.101949 H          1 MOL1         0.3726
       4    H3      22.278766   18.396917   20.239116 H          1 MOL1         0.3726
       5    C1      21.123484   18.351007   22.019763 C.3        1 MOL1         0.0314
       6    H4      21.587576   19.261318   22.408680 H          1 MOL1         0.0999
       7    H5      21.675146   17.494469   22.416688 H          1 MOL1         0.0999
       8    C2      19.657336   18.268401   22.494315 C.3        1 MOL1        -0.1308
       9    H6      19.118303   17.505195   21.917523 H          1 MOL1         0.1025
      10    H7      19.661212   17.913553   23.533504 H          1 MOL1         0.1025
      11    C3      18.891721   19.615577   22.453647 C.3        1 MOL1        -0.1243
      12    H8      19.406993   20.352730   23.085408 H          1 MOL1         0.1025
      13    H9      17.902249   19.465075   22.907832 H          1 MOL1         0.1025
      14    C4      18.698626   20.198306   21.035189 C.3        1 MOL1        -0.2258
      15    H10     19.644854   20.560650   20.616818 H          1 MOL1         0.1036
      16    H11     18.011281   21.053753   21.065590 H          1 MOL1         0.1036
      17    H12     18.271513   19.452231   20.352474 H          1 MOL1         0.1036
@<TRIPOS>BOND
    1     1     2    1
    2     1     3    1
    3     1     4    1
    4     1     5    1
    5     5     6    1
    6     5     7    1
    7     5     8    1
    8     8     9    1
    9     8    10    1
   10     8    11    1
   11    11    12    1
   12    11    13    1
   13    11    14    1
   14    14    15    1
   15    14    16    1
   16    14    17    1
@<TRIPOS>SUBSTRUCTURE
       1 MOL1            1 RESIDUE      1      MOL     
@<SCITEGIC>MOL_PROPERTY
VConf Rank
SciTegic.value.IntegerValue
585

@<SCITEGIC>MOL_PROPERTY
Conf_Id
SciTegic.value.IntegerValue
19

@<SCITEGIC>MOL_PROPERTY
Delta U+W
SciTegic.value.DoubleValue
2.662

@<SCITEGIC>MOL_PROPERTY
U+W
SciTegic.value.DoubleValue
-13.203

@<SCITEGIC>MOL_PROPERTY
Grad RMS
SciTegic.value.DoubleValue
0.000000

@<SCITEGIC>MOL_PROPERTY
U
SciTegic.value.DoubleValue
47.423

@<SCITEGIC>MOL_PROPERTY
W
SciTegic.value.DoubleValue
-60.626

@<SCITEGIC>MOL_PROPERTY
W(PB)
SciTegic.value.DoubleValue
-62.328

@<SCITEGIC>MOL_PROPERTY
W(SA)
SciTegic.value.DoubleValue
1.702

@<SCITEGIC>MOL_PROPERTY
Valence
SciTegic.value.DoubleValue
2.414

@<SCITEGIC>MOL_PROPERTY
Coulomb
SciTegic.value.DoubleValue
44.831

@<SCITEGIC>MOL_PROPERTY
VdW
SciTegic.value.DoubleValue
0.178

@<SCITEGIC>MOL_PROPERTY
VdW6
SciTegic.value.DoubleValue
-3.743

@<SCITEGIC>MOL_PROPERTY
VdW12
SciTegic.value.DoubleValue
3.921

@<SCITEGIC>MOL_PROPERTY
Bond
SciTegic.value.DoubleValue
0.138

@<SCITEGIC>MOL_PROPERTY
Angle
SciTegic.value.DoubleValue
0.941

@<SCITEGIC>MOL_PROPERTY
Pdih
SciTegic.value.DoubleValue
1.335

@<SCITEGIC>MOL_PROPERTY
Idih
SciTegic.value.DoubleValue
0.000

@<SCITEGIC>MOL_PROPERTY
Tether
SciTegic.value.DoubleValue
0.000

@<TRIPOS>MOLECULE
guest-1_confgen4.mol2 : confsearch ligand conformer 586
          17          16           1
SMALL
USER_CHARGES
 
@<TRIPOS>ATOM
       1    N1      18.649713   17.712556   21.947183 N.4        1 MOL1        -0.5891
       2    H1      17.684841   17.386203   21.831686 H          1 MOL1         0.3726
       3    H2      19.090643   17.097596   22.637752 H          1 MOL1         0.3726
       4    H3      19.129389   17.557897   21.056770 H          1 MOL1         0.3726
       5    C1      18.706204   19.167644   22.370935 C.3        1 MOL1         0.0314
       6    H4      18.176528   19.243829   23.324442 H          1 MOL1         0.0999
       7    H5      18.163465   19.766057   21.634296 H          1 MOL1         0.0999
       8    C2      20.135629   19.722955   22.544096 C.3        1 MOL1        -0.1308
       9    H6      20.075326   20.606267   23.193688 H          1 MOL1         0.1025
      10    H7      20.758497   18.995791   23.081681 H          1 MOL1         0.1025
      11    C3      20.823933   20.149554   21.222372 C.3        1 MOL1        -0.1243
      12    H8      21.784260   20.623489   21.469650 H          1 MOL1         0.1025
      13    H9      20.222262   20.923549   20.725435 H          1 MOL1         0.1025
      14    C4      21.087296   18.989437   20.235635 C.3        1 MOL1        -0.2258
      15    H10     21.605393   18.156596   20.728689 H          1 MOL1         0.1036
      16    H11     21.720563   19.331365   19.406651 H          1 MOL1         0.1036
      17    H12     20.155269   18.616061   19.795641 H          1 MOL1         0.1036
@<TRIPOS>BOND
    1     1     2    1
    2     1     3    1
    3     1     4    1
    4     1     5    1
    5     5     6    1
    6     5     7    1
    7     5     8    1
    8     8     9    1
    9     8    10    1
   10     8    11    1
   11    11    12    1
   12    11    13    1
   13    11    14    1
   14    14    15    1
   15    14    16    1
   16    14    17    1
@<TRIPOS>SUBSTRUCTURE
       1 MOL1            1 RESIDUE      1      MOL     
@<SCITEGIC>MOL_PROPERTY
VConf Rank
SciTegic.value.IntegerValue
586

@<SCITEGIC>MOL_PROPERTY
Conf_Id
SciTegic.value.IntegerValue
44

@<SCITEGIC>MOL_PROPERTY
Delta U+W
SciTegic.value.DoubleValue
2.712

@<SCITEGIC>MOL_PROPERTY
U+W
SciTegic.value.DoubleValue
-13.153

@<SCITEGIC>MOL_PROPERTY
Grad RMS
SciTegic.value.DoubleValue
0.000000

@<SCITEGIC>MOL_PROPERTY
U
SciTegic.value.DoubleValue
47.423

@<SCITEGIC>MOL_PROPERTY
W
SciTegic.value.DoubleValue
-60.576

@<SCITEGIC>MOL_PROPERTY
W(PB)
SciTegic.value.DoubleValue
-62.262

@<SCITEGIC>MOL_PROPERTY
W(SA)
SciTegic.value.DoubleValue
1.687

@<SCITEGIC>MOL_PROPERTY
Valence
SciTegic.value.DoubleValue
2.414

@<SCITEGIC>MOL_PROPERTY
Coulomb
SciTegic.value.DoubleValue
44.831

@<SCITEGIC>MOL_PROPERTY
VdW
SciTegic.value.DoubleValue
0.178

@<SCITEGIC>MOL_PROPERTY
VdW6
SciTegic.value.DoubleValue
-3.743

@<SCITEGIC>MOL_PROPERTY
VdW12
SciTegic.value.DoubleValue
3.922

@<SCITEGIC>MOL_PROPERTY
Bond
SciTegic.value.DoubleValue
0.138

@<SCITEGIC>MOL_PROPERTY
Angle
SciTegic.value.DoubleValue
0.941

@<SCITEGIC>MOL_PROPERTY
Pdih
SciTegic.value.DoubleValue
1.335

@<SCITEGIC>MOL_PROPERTY
Idih
SciTegic.value.DoubleValue
0.000

@<SCITEGIC>MOL_PROPERTY
Tether
SciTegic.value.DoubleValue
0.000

@<TRIPOS>MOLECULE
guest-1_confgen4.mol2 : confsearch ligand conformer 587
          17          16           1
SMALL
USER_CHARGES
 
@<TRIPOS>ATOM
       1    N1      20.109016   18.115051   23.347401 N.4        1 MOL1        -0.5891
       2    H1      20.898186   18.761759   23.261231 H          1 MOL1         0.3726
       3    H2      20.480409   17.167173   23.233500 H          1 MOL1         0.3726
       4    H3      19.767118   18.186923   24.311044 H          1 MOL1         0.3726
       5    C1      19.019277   18.420824   22.338030 C.3        1 MOL1         0.0314
       6    H4      18.648893   19.430441   22.533714 H          1 MOL1         0.0999
       7    H5      18.198142   17.720107   22.512019 H          1 MOL1         0.0999
       8    C2      19.481512   18.311624   20.870265 C.3        1 MOL1        -0.1308
       9    H6      19.813425   17.283782   20.672465 H          1 MOL1         0.1025
      10    H7      18.616854   18.484823   20.215915 H          1 MOL1         0.1025
      11    C3      20.613081   19.299173   20.490982 C.3        1 MOL1        -0.1243
      12    H8      20.884451   19.138771   19.438113 H          1 MOL1         0.1025
      13    H9      21.517664   19.078850   21.073941 H          1 MOL1         0.1025
      14    C4      20.215230   20.780083   20.686989 C.3        1 MOL1        -0.2258
      15    H10     19.312665   21.025569   20.112375 H          1 MOL1         0.1036
      16    H11     21.020227   21.443509   20.345210 H          1 MOL1         0.1036
      17    H12     20.022493   21.010300   21.742356 H          1 MOL1         0.1036
@<TRIPOS>BOND
    1     1     2    1
    2     1     3    1
    3     1     4    1
    4     1     5    1
    5     5     6    1
    6     5     7    1
    7     5     8    1
    8     8     9    1
    9     8    10    1
   10     8    11    1
   11    11    12    1
   12    11    13    1
   13    11    14    1
   14    14    15    1
   15    14    16    1
   16    14    17    1
@<TRIPOS>SUBSTRUCTURE
       1 MOL1            1 RESIDUE      1      MOL     
@<SCITEGIC>MOL_PROPERTY
VConf Rank
SciTegic.value.IntegerValue
587

@<SCITEGIC>MOL_PROPERTY
Conf_Id
SciTegic.value.IntegerValue
1

@<SCITEGIC>MOL_PROPERTY
Delta U+W
SciTegic.value.DoubleValue
0.685

@<SCITEGIC>MOL_PROPERTY
U+W
SciTegic.value.DoubleValue
-15.179

@<SCITEGIC>MOL_PROPERTY
Grad RMS
SciTegic.value.DoubleValue
0.000000

@<SCITEGIC>MOL_PROPERTY
U
SciTegic.value.DoubleValue
45.697

@<SCITEGIC>MOL_PROPERTY
W
SciTegic.value.DoubleValue
-60.876

@<SCITEGIC>MOL_PROPERTY
W(PB)
SciTegic.value.DoubleValue
-62.586

@<SCITEGIC>MOL_PROPERTY
W(SA)
SciTegic.value.DoubleValue
1.710

@<SCITEGIC>MOL_PROPERTY
Valence
SciTegic.value.DoubleValue
1.263

@<SCITEGIC>MOL_PROPERTY
Coulomb
SciTegic.value.DoubleValue
44.179

@<SCITEGIC>MOL_PROPERTY
VdW
SciTegic.value.DoubleValue
0.255

@<SCITEGIC>MOL_PROPERTY
VdW6
SciTegic.value.DoubleValue
-3.552

@<SCITEGIC>MOL_PROPERTY
VdW12
SciTegic.value.DoubleValue
3.807

@<SCITEGIC>MOL_PROPERTY
Bond
SciTegic.value.DoubleValue
0.125

@<SCITEGIC>MOL_PROPERTY
Angle
SciTegic.value.DoubleValue
0.616

@<SCITEGIC>MOL_PROPERTY
Pdih
SciTegic.value.DoubleValue
0.521

@<SCITEGIC>MOL_PROPERTY
Idih
SciTegic.value.DoubleValue
0.000

@<SCITEGIC>MOL_PROPERTY
Tether
SciTegic.value.DoubleValue
0.000

@<TRIPOS>MOLECULE
guest-1_confgen4.mol2 : confsearch ligand conformer 588
          17          16           1
SMALL
USER_CHARGES
 
@<TRIPOS>ATOM
       1    N1      18.674683   17.585653   21.056416 N.4        1 MOL1        -0.5891
       2    H1      18.495781   16.934051   21.826343 H          1 MOL1         0.3726
       3    H2      19.592494   17.350642   20.668033 H          1 MOL1         0.3726
       4    H3      17.981385   17.384152   20.328815 H          1 MOL1         0.3726
       5    C1      18.610639   19.030782   21.511783 C.3        1 MOL1         0.0314
       6    H4      17.597705   19.220109   21.877374 H          1 MOL1         0.0999
       7    H5      18.780100   19.669007   20.640717 H          1 MOL1         0.0999
       8    C2      19.626779   19.380568   22.618593 C.3        1 MOL1        -0.1308
       9    H6      19.464488   20.421544   22.928162 H          1 MOL1         0.1025
      10    H7      19.422630   18.763227   23.503444 H          1 MOL1         0.1025
      11    C3      21.106008   19.199722   22.195821 C.3        1 MOL1        -0.1243
      12    H8      21.307971   18.143700   21.970694 H          1 MOL1         0.1025
      13    H9      21.751324   19.456870   23.047493 H          1 MOL1         0.1025
      14    C4      21.500864   20.075064   20.984350 C.3        1 MOL1        -0.2258
      15    H10     22.570044   19.964514   20.761638 H          1 MOL1         0.1036
      16    H11     21.309049   21.137026   21.185624 H          1 MOL1         0.1036
      17    H12     20.944042   19.791409   20.082442 H          1 MOL1         0.1036
@<TRIPOS>BOND
    1     1     2    1
    2     1     3    1
    3     1     4    1
    4     1     5    1
    5     5     6    1
    6     5     7    1
    7     5     8    1
    8     8     9    1
    9     8    10    1
   10     8    11    1
   11    11    12    1
   12    11    13    1
   13    11    14    1
   14    14    15    1
   15    14    16    1
   16    14    17    1
@<TRIPOS>SUBSTRUCTURE
       1 MOL1            1 RESIDUE      1      MOL     
@<SCITEGIC>MOL_PROPERTY
VConf Rank
SciTegic.value.IntegerValue
588

@<SCITEGIC>MOL_PROPERTY
Conf_Id
SciTegic.value.IntegerValue
43

@<SCITEGIC>MOL_PROPERTY
Delta U+W
SciTegic.value.DoubleValue
0.642

@<SCITEGIC>MOL_PROPERTY
U+W
SciTegic.value.DoubleValue
-15.222

@<SCITEGIC>MOL_PROPERTY
Grad RMS
SciTegic.value.DoubleValue
0.000000

@<SCITEGIC>MOL_PROPERTY
U
SciTegic.value.DoubleValue
45.697

@<SCITEGIC>MOL_PROPERTY
W
SciTegic.value.DoubleValue
-60.919

@<SCITEGIC>MOL_PROPERTY
W(PB)
SciTegic.value.DoubleValue
-62.631

@<SCITEGIC>MOL_PROPERTY
W(SA)
SciTegic.value.DoubleValue
1.712

@<SCITEGIC>MOL_PROPERTY
Valence
SciTegic.value.DoubleValue
1.262

@<SCITEGIC>MOL_PROPERTY
Coulomb
SciTegic.value.DoubleValue
44.179

@<SCITEGIC>MOL_PROPERTY
VdW
SciTegic.value.DoubleValue
0.255

@<SCITEGIC>MOL_PROPERTY
VdW6
SciTegic.value.DoubleValue
-3.552

@<SCITEGIC>MOL_PROPERTY
VdW12
SciTegic.value.DoubleValue
3.807

@<SCITEGIC>MOL_PROPERTY
Bond
SciTegic.value.DoubleValue
0.125

@<SCITEGIC>MOL_PROPERTY
Angle
SciTegic.value.DoubleValue
0.616

@<SCITEGIC>MOL_PROPERTY
Pdih
SciTegic.value.DoubleValue
0.521

@<SCITEGIC>MOL_PROPERTY
Idih
SciTegic.value.DoubleValue
0.000

@<SCITEGIC>MOL_PROPERTY
Tether
SciTegic.value.DoubleValue
0.000

@<TRIPOS>MOLECULE
guest-1_confgen4.mol2 : confsearch ligand conformer 589
          17          16           1
SMALL
USER_CHARGES
 
@<TRIPOS>ATOM
       1    N1      20.376769   17.008406   20.119927 N.4        1 MOL1        -0.5891
       2    H1      21.221168   17.352809   19.652945 H          1 MOL1         0.3726
       3    H2      19.595761   17.150434   19.472197 H          1 MOL1         0.3726
       4    H3      20.490769   15.995472   20.228909 H          1 MOL1         0.3726
       5    C1      20.143238   17.695626   21.450546 C.3        1 MOL1         0.0314
       6    H4      20.996778   17.476760   22.097918 H          1 MOL1         0.0999
       7    H5      19.248959   17.259108   21.903582 H          1 MOL1         0.0999
       8    C2      19.967541   19.219856   21.323599 C.3        1 MOL1        -0.1308
       9    H6      20.860994   19.652736   20.854186 H          1 MOL1         0.1025
      10    H7      19.119108   19.435831   20.660647 H          1 MOL1         0.1025
      11    C3      19.732411   19.879990   22.699992 C.3        1 MOL1        -0.1243
      12    H8      20.579832   19.661368   23.365130 H          1 MOL1         0.1025
      13    H9      18.840040   19.444789   23.171796 H          1 MOL1         0.1025
      14    C4      19.555332   21.409150   22.580541 C.3        1 MOL1        -0.2258
      15    H10     19.389651   21.858733   23.568202 H          1 MOL1         0.1036
      16    H11     18.693274   21.659152   21.948433 H          1 MOL1         0.1036
      17    H12     20.446784   21.877426   22.143233 H          1 MOL1         0.1036
@<TRIPOS>BOND
    1     1     2    1
    2     1     3    1
    3     1     4    1
    4     1     5    1
    5     5     6    1
    6     5     7    1
    7     5     8    1
    8     8     9    1
    9     8    10    1
   10     8    11    1
   11    11    12    1
   12    11    13    1
   13    11    14    1
   14    14    15    1
   15    14    16    1
   16    14    17    1
@<TRIPOS>SUBSTRUCTURE
       1 MOL1            1 RESIDUE      1      MOL     
@<SCITEGIC>MOL_PROPERTY
VConf Rank
SciTegic.value.IntegerValue
589

@<SCITEGIC>MOL_PROPERTY
Conf_Id
SciTegic.value.IntegerValue
7

@<SCITEGIC>MOL_PROPERTY
Delta U+W
SciTegic.value.DoubleValue
0.000

@<SCITEGIC>MOL_PROPERTY
U+W
SciTegic.value.DoubleValue
-15.865

@<SCITEGIC>MOL_PROPERTY
Grad RMS
SciTegic.value.DoubleValue
0.000000

@<SCITEGIC>MOL_PROPERTY
U
SciTegic.value.DoubleValue
44.664

@<SCITEGIC>MOL_PROPERTY
W
SciTegic.value.DoubleValue
-60.529

@<SCITEGIC>MOL_PROPERTY
W(PB)
SciTegic.value.DoubleValue
-62.309

@<SCITEGIC>MOL_PROPERTY
W(SA)
SciTegic.value.DoubleValue
1.780

@<SCITEGIC>MOL_PROPERTY
Valence
SciTegic.value.DoubleValue
0.872

@<SCITEGIC>MOL_PROPERTY
Coulomb
SciTegic.value.DoubleValue
43.648

@<SCITEGIC>MOL_PROPERTY
VdW
SciTegic.value.DoubleValue
0.144

@<SCITEGIC>MOL_PROPERTY
VdW6
SciTegic.value.DoubleValue
-2.370

@<SCITEGIC>MOL_PROPERTY
VdW12
SciTegic.value.DoubleValue
2.515

@<SCITEGIC>MOL_PROPERTY
Bond
SciTegic.value.DoubleValue
0.080

@<SCITEGIC>MOL_PROPERTY
Angle
SciTegic.value.DoubleValue
0.376

@<SCITEGIC>MOL_PROPERTY
Pdih
SciTegic.value.DoubleValue
0.416

@<SCITEGIC>MOL_PROPERTY
Idih
SciTegic.value.DoubleValue
0.000

@<SCITEGIC>MOL_PROPERTY
Tether
SciTegic.value.DoubleValue
0.000

@<TRIPOS>MOLECULE
guest-1_confgen4.mol2 : confsearch ligand conformer 590
          17          16           1
SMALL
USER_CHARGES
 
@<TRIPOS>ATOM
       1    N1      19.708147   20.854289   23.259753 N.4        1 MOL1        -0.5891
       2    H1      19.604951   21.748506   22.770493 H          1 MOL1         0.3726
       3    H2      20.663343   20.821947   23.628807 H          1 MOL1         0.3726
       4    H3      19.078837   20.884719   24.068385 H          1 MOL1         0.3726
       5    C1      19.408457   19.674784   22.356254 C.3        1 MOL1         0.0314
       6    H4      18.369656   19.757824   22.025490 H          1 MOL1         0.0999
       7    H5      19.507236   18.762797   22.950695 H          1 MOL1         0.0999
       8    C2      20.337554   19.598741   21.129488 C.3        1 MOL1        -0.1308
       9    H6      20.260758   20.535345   20.561375 H          1 MOL1         0.1025
      10    H7      21.381027   19.517027   21.461716 H          1 MOL1         0.1025
      11    C3      19.996425   18.414185   20.195430 C.3        1 MOL1        -0.1243
      12    H8      20.639387   18.464746   19.305472 H          1 MOL1         0.1025
      13    H9      18.962545   18.512320   19.835370 H          1 MOL1         0.1025
      14    C4      20.181548   17.037266   20.873501 C.3        1 MOL1        -0.2258
      15    H10     21.206258   16.915949   21.248168 H          1 MOL1         0.1036
      16    H11     19.988523   16.227040   20.158461 H          1 MOL1         0.1036
      17    H12     19.490730   16.906287   21.715941 H          1 MOL1         0.1036
@<TRIPOS>BOND
    1     1     2    1
    2     1     3    1
    3     1     4    1
    4     1     5    1
    5     5     6    1
    6     5     7    1
    7     5     8    1
    8     8     9    1
    9     8    10    1
   10     8    11    1
   11    11    12    1
   12    11    13    1
   13    11    14    1
   14    14    15    1
   15    14    16    1
   16    14    17    1
@<TRIPOS>SUBSTRUCTURE
       1 MOL1            1 RESIDUE      1      MOL     
@<SCITEGIC>MOL_PROPERTY
VConf Rank
SciTegic.value.IntegerValue
590

@<SCITEGIC>MOL_PROPERTY
Conf_Id
SciTegic.value.IntegerValue
36

@<SCITEGIC>MOL_PROPERTY
Delta U+W
SciTegic.value.DoubleValue
0.275

@<SCITEGIC>MOL_PROPERTY
U+W
SciTegic.value.DoubleValue
-15.590

@<SCITEGIC>MOL_PROPERTY
Grad RMS
SciTegic.value.DoubleValue
0.000000

@<SCITEGIC>MOL_PROPERTY
U
SciTegic.value.DoubleValue
45.174

@<SCITEGIC>MOL_PROPERTY
W
SciTegic.value.DoubleValue
-60.765

@<SCITEGIC>MOL_PROPERTY
W(PB)
SciTegic.value.DoubleValue
-62.518

@<SCITEGIC>MOL_PROPERTY
W(SA)
SciTegic.value.DoubleValue
1.754

@<SCITEGIC>MOL_PROPERTY
Valence
SciTegic.value.DoubleValue
1.161

@<SCITEGIC>MOL_PROPERTY
Coulomb
SciTegic.value.DoubleValue
43.789

@<SCITEGIC>MOL_PROPERTY
VdW
SciTegic.value.DoubleValue
0.224

@<SCITEGIC>MOL_PROPERTY
VdW6
SciTegic.value.DoubleValue
-2.897

@<SCITEGIC>MOL_PROPERTY
VdW12
SciTegic.value.DoubleValue
3.121

@<SCITEGIC>MOL_PROPERTY
Bond
SciTegic.value.DoubleValue
0.100

@<SCITEGIC>MOL_PROPERTY
Angle
SciTegic.value.DoubleValue
0.500

@<SCITEGIC>MOL_PROPERTY
Pdih
SciTegic.value.DoubleValue
0.561

@<SCITEGIC>MOL_PROPERTY
Idih
SciTegic.value.DoubleValue
0.000

@<SCITEGIC>MOL_PROPERTY
Tether
SciTegic.value.DoubleValue
0.000

@<TRIPOS>MOLECULE
guest-1_confgen4.mol2 : confsearch ligand conformer 591
          17          16           1
SMALL
USER_CHARGES
 
@<TRIPOS>ATOM
       1    N1      20.757866   18.901567   19.935285 N.4        1 MOL1        -0.5891
       2    H1      20.547167   19.868170   20.196298 H          1 MOL1         0.3726
       3    H2      20.031633   18.601863   19.277833 H          1 MOL1         0.3726
       4    H3      21.641786   18.914185   19.416295 H          1 MOL1         0.3726
       5    C1      20.828877   17.994300   21.148485 C.3        1 MOL1         0.0314
       6    H4      21.661512   18.319406   21.778030 H          1 MOL1         0.0999
       7    H5      21.054260   16.988721   20.783039 H          1 MOL1         0.0999
       8    C2      19.531085   17.947078   21.982222 C.3        1 MOL1        -0.1308
       9    H6      18.660548   17.866719   21.317815 H          1 MOL1         0.1025
      10    H7      19.545825   17.021269   22.572566 H          1 MOL1         0.1025
      11    C3      19.353345   19.134552   22.962538 C.3        1 MOL1        -0.1243
      12    H8      20.200023   19.165727   23.662671 H          1 MOL1         0.1025
      13    H9      18.459846   18.947227   23.574550 H          1 MOL1         0.1025
      14    C4      19.200676   20.511536   22.277344 C.3        1 MOL1        -0.2258
      15    H10     20.142481   20.842029   21.824073 H          1 MOL1         0.1036
      16    H11     18.912866   21.273146   23.013734 H          1 MOL1         0.1036
      17    H12     18.423403   20.487223   21.502483 H          1 MOL1         0.1036
@<TRIPOS>BOND
    1     1     2    1
    2     1     3    1
    3     1     4    1
    4     1     5    1
    5     5     6    1
    6     5     7    1
    7     5     8    1
    8     8     9    1
    9     8    10    1
   10     8    11    1
   11    11    12    1
   12    11    13    1
   13    11    14    1
   14    14    15    1
   15    14    16    1
   16    14    17    1
@<TRIPOS>SUBSTRUCTURE
       1 MOL1            1 RESIDUE      1      MOL     
@<SCITEGIC>MOL_PROPERTY
VConf Rank
SciTegic.value.IntegerValue
591

@<SCITEGIC>MOL_PROPERTY
Conf_Id
SciTegic.value.IntegerValue
19

@<SCITEGIC>MOL_PROPERTY
Delta U+W
SciTegic.value.DoubleValue
2.662

@<SCITEGIC>MOL_PROPERTY
U+W
SciTegic.value.DoubleValue
-13.203

@<SCITEGIC>MOL_PROPERTY
Grad RMS
SciTegic.value.DoubleValue
0.000000

@<SCITEGIC>MOL_PROPERTY
U
SciTegic.value.DoubleValue
47.423

@<SCITEGIC>MOL_PROPERTY
W
SciTegic.value.DoubleValue
-60.626

@<SCITEGIC>MOL_PROPERTY
W(PB)
SciTegic.value.DoubleValue
-62.328

@<SCITEGIC>MOL_PROPERTY
W(SA)
SciTegic.value.DoubleValue
1.702

@<SCITEGIC>MOL_PROPERTY
Valence
SciTegic.value.DoubleValue
2.414

@<SCITEGIC>MOL_PROPERTY
Coulomb
SciTegic.value.DoubleValue
44.831

@<SCITEGIC>MOL_PROPERTY
VdW
SciTegic.value.DoubleValue
0.178

@<SCITEGIC>MOL_PROPERTY
VdW6
SciTegic.value.DoubleValue
-3.743

@<SCITEGIC>MOL_PROPERTY
VdW12
SciTegic.value.DoubleValue
3.921

@<SCITEGIC>MOL_PROPERTY
Bond
SciTegic.value.DoubleValue
0.138

@<SCITEGIC>MOL_PROPERTY
Angle
SciTegic.value.DoubleValue
0.941

@<SCITEGIC>MOL_PROPERTY
Pdih
SciTegic.value.DoubleValue
1.335

@<SCITEGIC>MOL_PROPERTY
Idih
SciTegic.value.DoubleValue
0.000

@<SCITEGIC>MOL_PROPERTY
Tether
SciTegic.value.DoubleValue
0.000

@<TRIPOS>MOLECULE
guest-1_confgen4.mol2 : confsearch ligand conformer 592
          17          16           1
SMALL
USER_CHARGES
 
@<TRIPOS>ATOM
       1    N1      20.199352   20.443030   22.802479 N.4        1 MOL1        -0.5891
       2    H1      20.886532   20.914134   23.399697 H          1 MOL1         0.3726
       3    H2      19.279121   20.811978   23.060419 H          1 MOL1         0.3726
       4    H3      20.382945   20.738155   21.840170 H          1 MOL1         0.3726
       5    C1      20.263408   18.934994   22.950000 C.3        1 MOL1         0.0314
       6    H4      20.055251   18.707163   23.998952 H          1 MOL1         0.0999
       7    H5      21.282480   18.606564   22.728804 H          1 MOL1         0.0999
       8    C2      19.262636   18.167467   22.060636 C.3        1 MOL1        -0.1308
       9    H6      19.118571   17.171843   22.500890 H          1 MOL1         0.1025
      10    H7      18.279844   18.656136   22.093079 H          1 MOL1         0.1025
      11    C3      19.722031   17.977355   20.592468 C.3        1 MOL1        -0.1243
      12    H8      18.991889   17.333657   20.082041 H          1 MOL1         0.1025
      13    H9      20.675570   17.431151   20.571370 H          1 MOL1         0.1025
      14    C4      19.863662   19.291843   19.791879 C.3        1 MOL1        -0.2258
      15    H10     18.957813   19.906827   19.871778 H          1 MOL1         0.1036
      16    H11     20.025299   19.073947   18.728135 H          1 MOL1         0.1036
      17    H12     20.722807   19.880602   20.133805 H          1 MOL1         0.1036
@<TRIPOS>BOND
    1     1     2    1
    2     1     3    1
    3     1     4    1
    4     1     5    1
    5     5     6    1
    6     5     7    1
    7     5     8    1
    8     8     9    1
    9     8    10    1
   10     8    11    1
   11    11    12    1
   12    11    13    1
   13    11    14    1
   14    14    15    1
   15    14    16    1
   16    14    17    1
@<TRIPOS>SUBSTRUCTURE
       1 MOL1            1 RESIDUE      1      MOL     
@<SCITEGIC>MOL_PROPERTY
VConf Rank
SciTegic.value.IntegerValue
592

@<SCITEGIC>MOL_PROPERTY
Conf_Id
SciTegic.value.IntegerValue
44

@<SCITEGIC>MOL_PROPERTY
Delta U+W
SciTegic.value.DoubleValue
2.712

@<SCITEGIC>MOL_PROPERTY
U+W
SciTegic.value.DoubleValue
-13.153

@<SCITEGIC>MOL_PROPERTY
Grad RMS
SciTegic.value.DoubleValue
0.000000

@<SCITEGIC>MOL_PROPERTY
U
SciTegic.value.DoubleValue
47.423

@<SCITEGIC>MOL_PROPERTY
W
SciTegic.value.DoubleValue
-60.576

@<SCITEGIC>MOL_PROPERTY
W(PB)
SciTegic.value.DoubleValue
-62.262

@<SCITEGIC>MOL_PROPERTY
W(SA)
SciTegic.value.DoubleValue
1.687

@<SCITEGIC>MOL_PROPERTY
Valence
SciTegic.value.DoubleValue
2.414

@<SCITEGIC>MOL_PROPERTY
Coulomb
SciTegic.value.DoubleValue
44.831

@<SCITEGIC>MOL_PROPERTY
VdW
SciTegic.value.DoubleValue
0.178

@<SCITEGIC>MOL_PROPERTY
VdW6
SciTegic.value.DoubleValue
-3.743

@<SCITEGIC>MOL_PROPERTY
VdW12
SciTegic.value.DoubleValue
3.922

@<SCITEGIC>MOL_PROPERTY
Bond
SciTegic.value.DoubleValue
0.138

@<SCITEGIC>MOL_PROPERTY
Angle
SciTegic.value.DoubleValue
0.941

@<SCITEGIC>MOL_PROPERTY
Pdih
SciTegic.value.DoubleValue
1.335

@<SCITEGIC>MOL_PROPERTY
Idih
SciTegic.value.DoubleValue
0.000

@<SCITEGIC>MOL_PROPERTY
Tether
SciTegic.value.DoubleValue
0.000

@<TRIPOS>MOLECULE
guest-1_confgen4.mol2 : confsearch ligand conformer 593
          17          16           1
SMALL
USER_CHARGES
 
@<TRIPOS>ATOM
       1    N1      21.506213   17.961312   22.113809 N.4        1 MOL1        -0.5891
       2    H1      21.413855   18.710557   22.805581 H          1 MOL1         0.3726
       3    H2      22.318132   18.185731   21.530885 H          1 MOL1         0.3726
       4    H3      21.736900   17.105506   22.628636 H          1 MOL1         0.3726
       5    C1      20.244276   17.800103   21.288348 C.3        1 MOL1         0.0314
       6    H4      19.427916   17.533822   21.964703 H          1 MOL1         0.0999
       7    H5      20.400295   16.963827   20.601444 H          1 MOL1         0.0999
       8    C2      19.862423   19.058764   20.482196 C.3        1 MOL1        -0.1308
       9    H6      20.670822   19.294325   19.777389 H          1 MOL1         0.1025
      10    H7      18.980249   18.829419   19.869844 H          1 MOL1         0.1025
      11    C3      19.565417   20.301627   21.357772 C.3        1 MOL1        -0.1243
      12    H8      19.318692   21.146907   20.700101 H          1 MOL1         0.1025
      13    H9      20.467773   20.599758   21.908704 H          1 MOL1         0.1025
      14    C4      18.399917   20.079608   22.348789 C.3        1 MOL1        -0.2258
      15    H10     17.484688   19.781299   21.821120 H          1 MOL1         0.1036
      16    H11     18.182182   21.003409   22.900289 H          1 MOL1         0.1036
      17    H12     18.638893   19.302789   23.085939 H          1 MOL1         0.1036
@<TRIPOS>BOND
    1     1     2    1
    2     1     3    1
    3     1     4    1
    4     1     5    1
    5     5     6    1
    6     5     7    1
    7     5     8    1
    8     8     9    1
    9     8    10    1
   10     8    11    1
   11    11    12    1
   12    11    13    1
   13    11    14    1
   14    14    15    1
   15    14    16    1
   16    14    17    1
@<TRIPOS>SUBSTRUCTURE
       1 MOL1            1 RESIDUE      1      MOL     
@<SCITEGIC>MOL_PROPERTY
VConf Rank
SciTegic.value.IntegerValue
593

@<SCITEGIC>MOL_PROPERTY
Conf_Id
SciTegic.value.IntegerValue
1

@<SCITEGIC>MOL_PROPERTY
Delta U+W
SciTegic.value.DoubleValue
0.685

@<SCITEGIC>MOL_PROPERTY
U+W
SciTegic.value.DoubleValue
-15.179

@<SCITEGIC>MOL_PROPERTY
Grad RMS
SciTegic.value.DoubleValue
0.000000

@<SCITEGIC>MOL_PROPERTY
U
SciTegic.value.DoubleValue
45.697

@<SCITEGIC>MOL_PROPERTY
W
SciTegic.value.DoubleValue
-60.876

@<SCITEGIC>MOL_PROPERTY
W(PB)
SciTegic.value.DoubleValue
-62.586

@<SCITEGIC>MOL_PROPERTY
W(SA)
SciTegic.value.DoubleValue
1.710

@<SCITEGIC>MOL_PROPERTY
Valence
SciTegic.value.DoubleValue
1.263

@<SCITEGIC>MOL_PROPERTY
Coulomb
SciTegic.value.DoubleValue
44.179

@<SCITEGIC>MOL_PROPERTY
VdW
SciTegic.value.DoubleValue
0.255

@<SCITEGIC>MOL_PROPERTY
VdW6
SciTegic.value.DoubleValue
-3.552

@<SCITEGIC>MOL_PROPERTY
VdW12
SciTegic.value.DoubleValue
3.807

@<SCITEGIC>MOL_PROPERTY
Bond
SciTegic.value.DoubleValue
0.125

@<SCITEGIC>MOL_PROPERTY
Angle
SciTegic.value.DoubleValue
0.616

@<SCITEGIC>MOL_PROPERTY
Pdih
SciTegic.value.DoubleValue
0.521

@<SCITEGIC>MOL_PROPERTY
Idih
SciTegic.value.DoubleValue
0.000

@<SCITEGIC>MOL_PROPERTY
Tether
SciTegic.value.DoubleValue
0.000

@<TRIPOS>MOLECULE
guest-1_confgen4.mol2 : confsearch ligand conformer 594
          17          16           1
SMALL
USER_CHARGES
 
@<TRIPOS>ATOM
       1    N1      21.869678   18.649950   21.451613 N.4        1 MOL1        -0.5891
       2    H1      22.261821   18.342697   22.346708 H          1 MOL1         0.3726
       3    H2      21.764659   19.667318   21.500411 H          1 MOL1         0.3726
       4    H3      22.576362   18.456133   20.734884 H          1 MOL1         0.3726
       5    C1      20.552668   17.963253   21.145361 C.3        1 MOL1         0.0314
       6    H4      20.746285   16.889690   21.071120 H          1 MOL1         0.0999
       7    H5      20.206786   18.312362   20.168993 H          1 MOL1         0.0999
       8    C2      19.459110   18.212944   22.204467 C.3        1 MOL1        -0.1308
       9    H6      18.569135   17.628956   21.934824 H          1 MOL1         0.1025
      10    H7      19.799200   17.822247   23.172683 H          1 MOL1         0.1025
      11    C3      19.062633   19.702120   22.361688 C.3        1 MOL1        -0.1243
      12    H8      19.921358   20.285633   22.720516 H          1 MOL1         0.1025
      13    H9      18.293633   19.782915   23.142723 H          1 MOL1         0.1025
      14    C4      18.519096   20.325163   21.055478 C.3        1 MOL1        -0.2258
      15    H10     18.190464   21.358017   21.229206 H          1 MOL1         0.1036
      16    H11     17.658023   19.759247   20.676850 H          1 MOL1         0.1036
      17    H12     19.285076   20.349395   20.270217 H          1 MOL1         0.1036
@<TRIPOS>BOND
    1     1     2    1
    2     1     3    1
    3     1     4    1
    4     1     5    1
    5     5     6    1
    6     5     7    1
    7     5     8    1
    8     8     9    1
    9     8    10    1
   10     8    11    1
   11    11    12    1
   12    11    13    1
   13    11    14    1
   14    14    15    1
   15    14    16    1
   16    14    17    1
@<TRIPOS>SUBSTRUCTURE
       1 MOL1            1 RESIDUE      1      MOL     
@<SCITEGIC>MOL_PROPERTY
VConf Rank
SciTegic.value.IntegerValue
594

@<SCITEGIC>MOL_PROPERTY
Conf_Id
SciTegic.value.IntegerValue
43

@<SCITEGIC>MOL_PROPERTY
Delta U+W
SciTegic.value.DoubleValue
0.642

@<SCITEGIC>MOL_PROPERTY
U+W
SciTegic.value.DoubleValue
-15.222

@<SCITEGIC>MOL_PROPERTY
Grad RMS
SciTegic.value.DoubleValue
0.000000

@<SCITEGIC>MOL_PROPERTY
U
SciTegic.value.DoubleValue
45.697

@<SCITEGIC>MOL_PROPERTY
W
SciTegic.value.DoubleValue
-60.919

@<SCITEGIC>MOL_PROPERTY
W(PB)
SciTegic.value.DoubleValue
-62.631

@<SCITEGIC>MOL_PROPERTY
W(SA)
SciTegic.value.DoubleValue
1.712

@<SCITEGIC>MOL_PROPERTY
Valence
SciTegic.value.DoubleValue
1.262

@<SCITEGIC>MOL_PROPERTY
Coulomb
SciTegic.value.DoubleValue
44.179

@<SCITEGIC>MOL_PROPERTY
VdW
SciTegic.value.DoubleValue
0.255

@<SCITEGIC>MOL_PROPERTY
VdW6
SciTegic.value.DoubleValue
-3.552

@<SCITEGIC>MOL_PROPERTY
VdW12
SciTegic.value.DoubleValue
3.807

@<SCITEGIC>MOL_PROPERTY
Bond
SciTegic.value.DoubleValue
0.125

@<SCITEGIC>MOL_PROPERTY
Angle
SciTegic.value.DoubleValue
0.616

@<SCITEGIC>MOL_PROPERTY
Pdih
SciTegic.value.DoubleValue
0.521

@<SCITEGIC>MOL_PROPERTY
Idih
SciTegic.value.DoubleValue
0.000

@<SCITEGIC>MOL_PROPERTY
Tether
SciTegic.value.DoubleValue
0.000

@<TRIPOS>MOLECULE
guest-1_confgen4.mol2 : confsearch ligand conformer 595
          17          16           1
SMALL
USER_CHARGES
 
@<TRIPOS>ATOM
       1    N1      22.084918   19.635620   20.288268 N.4        1 MOL1        -0.5891
       2    H1      22.745873   19.113429   20.871493 H          1 MOL1         0.3726
       3    H2      22.150866   20.619533   20.566228 H          1 MOL1         0.3726
       4    H3      22.429316   19.576342   19.324533 H          1 MOL1         0.3726
       5    C1      20.671575   19.103030   20.415414 C.3        1 MOL1         0.0314
       6    H4      20.670405   18.064075   20.074688 H          1 MOL1         0.0999
       7    H5      20.030581   19.683598   19.746392 H          1 MOL1         0.0999
       8    C2      20.122205   19.177148   21.851715 C.3        1 MOL1        -0.1308
       9    H6      20.776972   18.605869   22.523214 H          1 MOL1         0.1025
      10    H7      20.139210   20.219826   22.195990 H          1 MOL1         0.1025
      11    C3      18.682133   18.625393   21.937033 C.3        1 MOL1        -0.1243
      12    H8      18.663883   17.582730   21.589403 H          1 MOL1         0.1025
      13    H9      18.026884   19.194754   21.262643 H          1 MOL1         0.1025
      14    C4      18.124378   18.696470   23.375022 C.3        1 MOL1        -0.2258
      15    H10     17.101419   18.300160   23.414281 H          1 MOL1         0.1036
      16    H11     18.097859   19.732186   23.738059 H          1 MOL1         0.1036
      17    H12     18.739930   18.107482   24.067406 H          1 MOL1         0.1036
@<TRIPOS>BOND
    1     1     2    1
    2     1     3    1
    3     1     4    1
    4     1     5    1
    5     5     6    1
    6     5     7    1
    7     5     8    1
    8     8     9    1
    9     8    10    1
   10     8    11    1
   11    11    12    1
   12    11    13    1
   13    11    14    1
   14    14    15    1
   15    14    16    1
   16    14    17    1
@<TRIPOS>SUBSTRUCTURE
       1 MOL1            1 RESIDUE      1      MOL     
@<SCITEGIC>MOL_PROPERTY
VConf Rank
SciTegic.value.IntegerValue
595

@<SCITEGIC>MOL_PROPERTY
Conf_Id
SciTegic.value.IntegerValue
7

@<SCITEGIC>MOL_PROPERTY
Delta U+W
SciTegic.value.DoubleValue
0.000

@<SCITEGIC>MOL_PROPERTY
U+W
SciTegic.value.DoubleValue
-15.865

@<SCITEGIC>MOL_PROPERTY
Grad RMS
SciTegic.value.DoubleValue
0.000000

@<SCITEGIC>MOL_PROPERTY
U
SciTegic.value.DoubleValue
44.664

@<SCITEGIC>MOL_PROPERTY
W
SciTegic.value.DoubleValue
-60.529

@<SCITEGIC>MOL_PROPERTY
W(PB)
SciTegic.value.DoubleValue
-62.309

@<SCITEGIC>MOL_PROPERTY
W(SA)
SciTegic.value.DoubleValue
1.780

@<SCITEGIC>MOL_PROPERTY
Valence
SciTegic.value.DoubleValue
0.872

@<SCITEGIC>MOL_PROPERTY
Coulomb
SciTegic.value.DoubleValue
43.648

@<SCITEGIC>MOL_PROPERTY
VdW
SciTegic.value.DoubleValue
0.144

@<SCITEGIC>MOL_PROPERTY
VdW6
SciTegic.value.DoubleValue
-2.370

@<SCITEGIC>MOL_PROPERTY
VdW12
SciTegic.value.DoubleValue
2.515

@<SCITEGIC>MOL_PROPERTY
Bond
SciTegic.value.DoubleValue
0.080

@<SCITEGIC>MOL_PROPERTY
Angle
SciTegic.value.DoubleValue
0.376

@<SCITEGIC>MOL_PROPERTY
Pdih
SciTegic.value.DoubleValue
0.416

@<SCITEGIC>MOL_PROPERTY
Idih
SciTegic.value.DoubleValue
0.000

@<SCITEGIC>MOL_PROPERTY
Tether
SciTegic.value.DoubleValue
0.000

@<TRIPOS>MOLECULE
guest-1_confgen4.mol2 : confsearch ligand conformer 596
          17          16           1
SMALL
USER_CHARGES
 
@<TRIPOS>ATOM
       1    N1      20.571804   17.810364   19.681016 N.4        1 MOL1        -0.5891
       2    H1      20.623403   18.438200   18.873051 H          1 MOL1         0.3726
       3    H2      19.710373   17.264475   19.583089 H          1 MOL1         0.3726
       4    H3      21.351974   17.151096   19.594158 H          1 MOL1         0.3726
       5    C1      20.617531   18.568211   20.992859 C.3        1 MOL1         0.0314
       6    H4      21.571239   19.100545   21.042545 H          1 MOL1         0.0999
       7    H5      20.590484   17.836538   21.804501 H          1 MOL1         0.0999
       8    C2      19.457351   19.568829   21.156271 C.3        1 MOL1        -0.1308
       9    H6      19.469570   20.274423   20.314924 H          1 MOL1         0.1025
      10    H7      18.499442   19.034377   21.104688 H          1 MOL1         0.1025
      11    C3      19.537158   20.363507   22.480704 C.3        1 MOL1        -0.1243
      12    H8      18.731706   21.111135   22.497469 H          1 MOL1         0.1025
      13    H9      20.480979   20.925569   22.519041 H          1 MOL1         0.1025
      14    C4      19.416878   19.464775   23.732811 C.3        1 MOL1        -0.2258
      15    H10     18.483691   18.886841   23.716151 H          1 MOL1         0.1036
      16    H11     19.416693   20.074476   24.645649 H          1 MOL1         0.1036
      17    H12     20.255105   18.760411   23.805874 H          1 MOL1         0.1036
@<TRIPOS>BOND
    1     1     2    1
    2     1     3    1
    3     1     4    1
    4     1     5    1
    5     5     6    1
    6     5     7    1
    7     5     8    1
    8     8     9    1
    9     8    10    1
   10     8    11    1
   11    11    12    1
   12    11    13    1
   13    11    14    1
   14    14    15    1
   15    14    16    1
   16    14    17    1
@<TRIPOS>SUBSTRUCTURE
       1 MOL1            1 RESIDUE      1      MOL     
@<SCITEGIC>MOL_PROPERTY
VConf Rank
SciTegic.value.IntegerValue
596

@<SCITEGIC>MOL_PROPERTY
Conf_Id
SciTegic.value.IntegerValue
36

@<SCITEGIC>MOL_PROPERTY
Delta U+W
SciTegic.value.DoubleValue
0.275

@<SCITEGIC>MOL_PROPERTY
U+W
SciTegic.value.DoubleValue
-15.590

@<SCITEGIC>MOL_PROPERTY
Grad RMS
SciTegic.value.DoubleValue
0.000000

@<SCITEGIC>MOL_PROPERTY
U
SciTegic.value.DoubleValue
45.174

@<SCITEGIC>MOL_PROPERTY
W
SciTegic.value.DoubleValue
-60.765

@<SCITEGIC>MOL_PROPERTY
W(PB)
SciTegic.value.DoubleValue
-62.518

@<SCITEGIC>MOL_PROPERTY
W(SA)
SciTegic.value.DoubleValue
1.754

@<SCITEGIC>MOL_PROPERTY
Valence
SciTegic.value.DoubleValue
1.161

@<SCITEGIC>MOL_PROPERTY
Coulomb
SciTegic.value.DoubleValue
43.789

@<SCITEGIC>MOL_PROPERTY
VdW
SciTegic.value.DoubleValue
0.224

@<SCITEGIC>MOL_PROPERTY
VdW6
SciTegic.value.DoubleValue
-2.897

@<SCITEGIC>MOL_PROPERTY
VdW12
SciTegic.value.DoubleValue
3.121

@<SCITEGIC>MOL_PROPERTY
Bond
SciTegic.value.DoubleValue
0.100

@<SCITEGIC>MOL_PROPERTY
Angle
SciTegic.value.DoubleValue
0.500

@<SCITEGIC>MOL_PROPERTY
Pdih
SciTegic.value.DoubleValue
0.561

@<SCITEGIC>MOL_PROPERTY
Idih
SciTegic.value.DoubleValue
0.000

@<SCITEGIC>MOL_PROPERTY
Tether
SciTegic.value.DoubleValue
0.000

@<TRIPOS>MOLECULE
guest-1_confgen4.mol2 : confsearch ligand conformer 597
          17          16           1
SMALL
USER_CHARGES
 
@<TRIPOS>ATOM
       1    N1      18.831237   20.393901   22.102268 N.4        1 MOL1        -0.5891
       2    H1      18.547738   19.519726   22.552036 H          1 MOL1         0.3726
       3    H2      18.194864   20.547515   21.314288 H          1 MOL1         0.3726
       4    H3      18.660195   21.149065   22.774052 H          1 MOL1         0.3726
       5    C1      20.280278   20.352744   21.656604 C.3        1 MOL1         0.0314
       6    H4      20.914199   20.255982   22.542088 H          1 MOL1         0.0999
       7    H5      20.498424   21.316584   21.188670 H          1 MOL1         0.0999
       8    C2      20.604510   19.223328   20.656151 C.3        1 MOL1        -0.1308
       9    H6      19.818944   19.162031   19.891391 H          1 MOL1         0.1025
      10    H7      21.523007   19.501978   20.122706 H          1 MOL1         0.1025
      11    C3      20.833579   17.834951   21.306261 C.3        1 MOL1        -0.1243
      12    H8      21.664085   17.895267   22.023648 H          1 MOL1         0.1025
      13    H9      21.158782   17.135634   20.523198 H          1 MOL1         0.1025
      14    C4      19.589166   17.244514   22.007477 C.3        1 MOL1        -0.2258
      15    H10     19.346808   17.792353   22.925524 H          1 MOL1         0.1036
      16    H11     19.773278   16.200931   22.294171 H          1 MOL1         0.1036
      17    H12     18.714107   17.258212   21.344728 H          1 MOL1         0.1036
@<TRIPOS>BOND
    1     1     2    1
    2     1     3    1
    3     1     4    1
    4     1     5    1
    5     5     6    1
    6     5     7    1
    7     5     8    1
    8     8     9    1
    9     8    10    1
   10     8    11    1
   11    11    12    1
   12    11    13    1
   13    11    14    1
   14    14    15    1
   15    14    16    1
   16    14    17    1
@<TRIPOS>SUBSTRUCTURE
       1 MOL1            1 RESIDUE      1      MOL     
@<SCITEGIC>MOL_PROPERTY
VConf Rank
SciTegic.value.IntegerValue
597

@<SCITEGIC>MOL_PROPERTY
Conf_Id
SciTegic.value.IntegerValue
19

@<SCITEGIC>MOL_PROPERTY
Delta U+W
SciTegic.value.DoubleValue
2.662

@<SCITEGIC>MOL_PROPERTY
U+W
SciTegic.value.DoubleValue
-13.203

@<SCITEGIC>MOL_PROPERTY
Grad RMS
SciTegic.value.DoubleValue
0.000000

@<SCITEGIC>MOL_PROPERTY
U
SciTegic.value.DoubleValue
47.423

@<SCITEGIC>MOL_PROPERTY
W
SciTegic.value.DoubleValue
-60.626

@<SCITEGIC>MOL_PROPERTY
W(PB)
SciTegic.value.DoubleValue
-62.328

@<SCITEGIC>MOL_PROPERTY
W(SA)
SciTegic.value.DoubleValue
1.702

@<SCITEGIC>MOL_PROPERTY
Valence
SciTegic.value.DoubleValue
2.414

@<SCITEGIC>MOL_PROPERTY
Coulomb
SciTegic.value.DoubleValue
44.831

@<SCITEGIC>MOL_PROPERTY
VdW
SciTegic.value.DoubleValue
0.178

@<SCITEGIC>MOL_PROPERTY
VdW6
SciTegic.value.DoubleValue
-3.743

@<SCITEGIC>MOL_PROPERTY
VdW12
SciTegic.value.DoubleValue
3.921

@<SCITEGIC>MOL_PROPERTY
Bond
SciTegic.value.DoubleValue
0.138

@<SCITEGIC>MOL_PROPERTY
Angle
SciTegic.value.DoubleValue
0.941

@<SCITEGIC>MOL_PROPERTY
Pdih
SciTegic.value.DoubleValue
1.335

@<SCITEGIC>MOL_PROPERTY
Idih
SciTegic.value.DoubleValue
0.000

@<SCITEGIC>MOL_PROPERTY
Tether
SciTegic.value.DoubleValue
0.000

@<TRIPOS>MOLECULE
guest-1_confgen4.mol2 : confsearch ligand conformer 598
          17          16           1
SMALL
USER_CHARGES
 
@<TRIPOS>ATOM
       1    N1      20.961647   18.514473   20.190794 N.4        1 MOL1        -0.5891
       2    H1      21.262433   18.690474   19.226753 H          1 MOL1         0.3726
       3    H2      21.313348   17.587054   20.447075 H          1 MOL1         0.3726
       4    H3      21.442586   19.193717   20.785914 H          1 MOL1         0.3726
       5    C1      19.454931   18.606033   20.337299 C.3        1 MOL1         0.0314
       6    H4      19.022748   17.851352   19.674569 H          1 MOL1         0.0999
       7    H5      19.130201   19.589330   19.986617 H          1 MOL1         0.0999
       8    C2      18.941471   18.367727   21.772981 C.3        1 MOL1        -0.1308
       9    H6      17.884028   18.079133   21.706858 H          1 MOL1         0.1025
      10    H7      19.460470   17.509434   22.219862 H          1 MOL1         0.1025
      11    C3      19.041027   19.602687   22.704467 C.3        1 MOL1        -0.1243
      12    H8      18.555623   19.355996   23.659201 H          1 MOL1         0.1025
      13    H9      18.464912   20.435402   22.277034 H          1 MOL1         0.1025
      14    C4      20.485538   20.070542   22.993222 C.3        1 MOL1        -0.2258
      15    H10     21.114125   19.237068   23.332856 H          1 MOL1         0.1036
      16    H11     20.487870   20.832687   23.783339 H          1 MOL1         0.1036
      17    H12     20.946252   20.523737   22.107763 H          1 MOL1         0.1036
@<TRIPOS>BOND
    1     1     2    1
    2     1     3    1
    3     1     4    1
    4     1     5    1
    5     5     6    1
    6     5     7    1
    7     5     8    1
    8     8     9    1
    9     8    10    1
   10     8    11    1
   11    11    12    1
   12    11    13    1
   13    11    14    1
   14    14    15    1
   15    14    16    1
   16    14    17    1
@<TRIPOS>SUBSTRUCTURE
       1 MOL1            1 RESIDUE      1      MOL     
@<SCITEGIC>MOL_PROPERTY
VConf Rank
SciTegic.value.IntegerValue
598

@<SCITEGIC>MOL_PROPERTY
Conf_Id
SciTegic.value.IntegerValue
44

@<SCITEGIC>MOL_PROPERTY
Delta U+W
SciTegic.value.DoubleValue
2.712

@<SCITEGIC>MOL_PROPERTY
U+W
SciTegic.value.DoubleValue
-13.153

@<SCITEGIC>MOL_PROPERTY
Grad RMS
SciTegic.value.DoubleValue
0.000000

@<SCITEGIC>MOL_PROPERTY
U
SciTegic.value.DoubleValue
47.423

@<SCITEGIC>MOL_PROPERTY
W
SciTegic.value.DoubleValue
-60.576

@<SCITEGIC>MOL_PROPERTY
W(PB)
SciTegic.value.DoubleValue
-62.262

@<SCITEGIC>MOL_PROPERTY
W(SA)
SciTegic.value.DoubleValue
1.687

@<SCITEGIC>MOL_PROPERTY
Valence
SciTegic.value.DoubleValue
2.414

@<SCITEGIC>MOL_PROPERTY
Coulomb
SciTegic.value.DoubleValue
44.831

@<SCITEGIC>MOL_PROPERTY
VdW
SciTegic.value.DoubleValue
0.178

@<SCITEGIC>MOL_PROPERTY
VdW6
SciTegic.value.DoubleValue
-3.743

@<SCITEGIC>MOL_PROPERTY
VdW12
SciTegic.value.DoubleValue
3.922

@<SCITEGIC>MOL_PROPERTY
Bond
SciTegic.value.DoubleValue
0.138

@<SCITEGIC>MOL_PROPERTY
Angle
SciTegic.value.DoubleValue
0.941

@<SCITEGIC>MOL_PROPERTY
Pdih
SciTegic.value.DoubleValue
1.335

@<SCITEGIC>MOL_PROPERTY
Idih
SciTegic.value.DoubleValue
0.000

@<SCITEGIC>MOL_PROPERTY
Tether
SciTegic.value.DoubleValue
0.000

@<TRIPOS>MOLECULE
guest-1_confgen4.mol2 : confsearch ligand conformer 599
          17          16           1
SMALL
USER_CHARGES
 
@<TRIPOS>ATOM
       1    N1      21.260443   19.480811   20.202644 N.4        1 MOL1        -0.5891
       2    H1      20.815827   18.601179   19.925137 H          1 MOL1         0.3726
       3    H2      22.211357   19.255722   20.510014 H          1 MOL1         0.3726
       4    H3      21.348673   20.051651   19.355870 H          1 MOL1         0.3726
       5    C1      20.470263   20.193264   21.283330 C.3        1 MOL1         0.0314
       6    H4      19.481526   20.429044   20.881322 H          1 MOL1         0.0999
       7    H5      20.979706   21.135769   21.501714 H          1 MOL1         0.0999
       8    C2      20.321908   19.379281   22.585384 C.3        1 MOL1        -0.1308
       9    H6      21.318259   19.182474   23.002878 H          1 MOL1         0.1025
      10    H7      19.796127   19.995433   23.326811 H          1 MOL1         0.1025
      11    C3      19.565080   18.039398   22.407960 C.3        1 MOL1        -0.1243
      12    H8      19.521766   17.526298   23.378917 H          1 MOL1         0.1025
      13    H9      20.127069   17.374065   21.738516 H          1 MOL1         0.1025
      14    C4      18.126586   18.222838   21.872347 C.3        1 MOL1        -0.2258
      15    H10     17.543439   18.884302   22.526161 H          1 MOL1         0.1036
      16    H11     17.607359   17.256865   21.824719 H          1 MOL1         0.1036
      17    H12     18.123253   18.650368   20.861824 H          1 MOL1         0.1036
@<TRIPOS>BOND
    1     1     2    1
    2     1     3    1
    3     1     4    1
    4     1     5    1
    5     5     6    1
    6     5     7    1
    7     5     8    1
    8     8     9    1
    9     8    10    1
   10     8    11    1
   11    11    12    1
   12    11    13    1
   13    11    14    1
   14    14    15    1
   15    14    16    1
   16    14    17    1
@<TRIPOS>SUBSTRUCTURE
       1 MOL1            1 RESIDUE      1      MOL     
@<SCITEGIC>MOL_PROPERTY
VConf Rank
SciTegic.value.IntegerValue
599

@<SCITEGIC>MOL_PROPERTY
Conf_Id
SciTegic.value.IntegerValue
1

@<SCITEGIC>MOL_PROPERTY
Delta U+W
SciTegic.value.DoubleValue
0.685

@<SCITEGIC>MOL_PROPERTY
U+W
SciTegic.value.DoubleValue
-15.179

@<SCITEGIC>MOL_PROPERTY
Grad RMS
SciTegic.value.DoubleValue
0.000000

@<SCITEGIC>MOL_PROPERTY
U
SciTegic.value.DoubleValue
45.697

@<SCITEGIC>MOL_PROPERTY
W
SciTegic.value.DoubleValue
-60.876

@<SCITEGIC>MOL_PROPERTY
W(PB)
SciTegic.value.DoubleValue
-62.586

@<SCITEGIC>MOL_PROPERTY
W(SA)
SciTegic.value.DoubleValue
1.710

@<SCITEGIC>MOL_PROPERTY
Valence
SciTegic.value.DoubleValue
1.263

@<SCITEGIC>MOL_PROPERTY
Coulomb
SciTegic.value.DoubleValue
44.179

@<SCITEGIC>MOL_PROPERTY
VdW
SciTegic.value.DoubleValue
0.255

@<SCITEGIC>MOL_PROPERTY
VdW6
SciTegic.value.DoubleValue
-3.552

@<SCITEGIC>MOL_PROPERTY
VdW12
SciTegic.value.DoubleValue
3.807

@<SCITEGIC>MOL_PROPERTY
Bond
SciTegic.value.DoubleValue
0.125

@<SCITEGIC>MOL_PROPERTY
Angle
SciTegic.value.DoubleValue
0.616

@<SCITEGIC>MOL_PROPERTY
Pdih
SciTegic.value.DoubleValue
0.521

@<SCITEGIC>MOL_PROPERTY
Idih
SciTegic.value.DoubleValue
0.000

@<SCITEGIC>MOL_PROPERTY
Tether
SciTegic.value.DoubleValue
0.000

@<TRIPOS>MOLECULE
guest-1_confgen4.mol2 : confsearch ligand conformer 600
          17          16           1
SMALL
USER_CHARGES
 
@<TRIPOS>ATOM
       1    N1      19.846033   20.336642   20.105471 N.4        1 MOL1        -0.5891
       2    H1      19.410966   21.216574   20.398411 H          1 MOL1         0.3726
       3    H2      19.091342   19.661170   19.955053 H          1 MOL1         0.3726
       4    H3      20.280013   20.508551   19.192906 H          1 MOL1         0.3726
       5    C1      20.852748   19.836781   21.123568 C.3        1 MOL1         0.0314
       6    H4      21.644309   20.586672   21.205012 H          1 MOL1         0.0999
       7    H5      21.297979   18.916351   20.737067 H          1 MOL1         0.0999
       8    C2      20.249940   19.576797   22.519617 C.3        1 MOL1        -0.1308
       9    H6      21.058331   19.282337   23.201966 H          1 MOL1         0.1025
      10    H7      19.841828   20.515768   22.916512 H          1 MOL1         0.1025
      11    C3      19.147223   18.489015   22.537084 C.3        1 MOL1        -0.1243
      12    H8      18.289706   18.810865   21.930676 H          1 MOL1         0.1025
      13    H9      18.769949   18.384179   23.564010 H          1 MOL1         0.1025
      14    C4      19.646983   17.112190   22.042724 C.3        1 MOL1        -0.2258
      15    H10     18.853504   16.359157   22.133821 H          1 MOL1         0.1036
      16    H11     20.504709   16.767819   22.634992 H          1 MOL1         0.1036
      17    H12     19.950422   17.147172   20.988850 H          1 MOL1         0.1036
@<TRIPOS>BOND
    1     1     2    1
    2     1     3    1
    3     1     4    1
    4     1     5    1
    5     5     6    1
    6     5     7    1
    7     5     8    1
    8     8     9    1
    9     8    10    1
   10     8    11    1
   11    11    12    1
   12    11    13    1
   13    11    14    1
   14    14    15    1
   15    14    16    1
   16    14    17    1
@<TRIPOS>SUBSTRUCTURE
       1 MOL1            1 RESIDUE      1      MOL     
@<SCITEGIC>MOL_PROPERTY
VConf Rank
SciTegic.value.IntegerValue
600

@<SCITEGIC>MOL_PROPERTY
Conf_Id
SciTegic.value.IntegerValue
43

@<SCITEGIC>MOL_PROPERTY
Delta U+W
SciTegic.value.DoubleValue
0.642

@<SCITEGIC>MOL_PROPERTY
U+W
SciTegic.value.DoubleValue
-15.222

@<SCITEGIC>MOL_PROPERTY
Grad RMS
SciTegic.value.DoubleValue
0.000000

@<SCITEGIC>MOL_PROPERTY
U
SciTegic.value.DoubleValue
45.697

@<SCITEGIC>MOL_PROPERTY
W
SciTegic.value.DoubleValue
-60.919

@<SCITEGIC>MOL_PROPERTY
W(PB)
SciTegic.value.DoubleValue
-62.631

@<SCITEGIC>MOL_PROPERTY
W(SA)
SciTegic.value.DoubleValue
1.712

@<SCITEGIC>MOL_PROPERTY
Valence
SciTegic.value.DoubleValue
1.262

@<SCITEGIC>MOL_PROPERTY
Coulomb
SciTegic.value.DoubleValue
44.179

@<SCITEGIC>MOL_PROPERTY
VdW
SciTegic.value.DoubleValue
0.255

@<SCITEGIC>MOL_PROPERTY
VdW6
SciTegic.value.DoubleValue
-3.552

@<SCITEGIC>MOL_PROPERTY
VdW12
SciTegic.value.DoubleValue
3.807

@<SCITEGIC>MOL_PROPERTY
Bond
SciTegic.value.DoubleValue
0.125

@<SCITEGIC>MOL_PROPERTY
Angle
SciTegic.value.DoubleValue
0.616

@<SCITEGIC>MOL_PROPERTY
Pdih
SciTegic.value.DoubleValue
0.521

@<SCITEGIC>MOL_PROPERTY
Idih
SciTegic.value.DoubleValue
0.000

@<SCITEGIC>MOL_PROPERTY
Tether
SciTegic.value.DoubleValue
0.000

@<TRIPOS>MOLECULE
guest-1_confgen4.mol2 : confsearch ligand conformer 601
          17          16           1
SMALL
USER_CHARGES
 
@<TRIPOS>ATOM
       1    N1      22.464543   19.582253   21.761723 N.4        1 MOL1        -0.5891
       2    H1      22.775491   18.971694   20.999998 H          1 MOL1         0.3726
       3    H2      22.647748   19.085708   22.638977 H          1 MOL1         0.3726
       4    H3      23.078144   20.403421   21.752422 H          1 MOL1         0.3726
       5    C1      21.005360   19.967475   21.621197 C.3        1 MOL1         0.0314
       6    H4      20.890196   20.517292   20.683134 H          1 MOL1         0.0999
       7    H5      20.752840   20.639935   22.445548 H          1 MOL1         0.0999
       8    C2      20.054520   18.756665   21.631351 C.3        1 MOL1        -0.1308
       9    H6      20.320950   18.076063   20.811725 H          1 MOL1         0.1025
      10    H7      20.183957   18.198374   22.568126 H          1 MOL1         0.1025
      11    C3      18.579950   19.192592   21.485981 C.3        1 MOL1        -0.1243
      12    H8      18.450441   19.754361   20.550049 H          1 MOL1         0.1025
      13    H9      18.313588   19.876458   22.304336 H          1 MOL1         0.1025
      14    C4      17.620179   17.983168   21.495278 C.3        1 MOL1        -0.2258
      15    H10     16.578610   18.313781   21.390976 H          1 MOL1         0.1036
      16    H11     17.701955   17.420748   22.434535 H          1 MOL1         0.1036
      17    H12     17.839936   17.297659   20.666428 H          1 MOL1         0.1036
@<TRIPOS>BOND
    1     1     2    1
    2     1     3    1
    3     1     4    1
    4     1     5    1
    5     5     6    1
    6     5     7    1
    7     5     8    1
    8     8     9    1
    9     8    10    1
   10     8    11    1
   11    11    12    1
   12    11    13    1
   13    11    14    1
   14    14    15    1
   15    14    16    1
   16    14    17    1
@<TRIPOS>SUBSTRUCTURE
       1 MOL1            1 RESIDUE      1      MOL     
@<SCITEGIC>MOL_PROPERTY
VConf Rank
SciTegic.value.IntegerValue
601

@<SCITEGIC>MOL_PROPERTY
Conf_Id
SciTegic.value.IntegerValue
7

@<SCITEGIC>MOL_PROPERTY
Delta U+W
SciTegic.value.DoubleValue
0.000

@<SCITEGIC>MOL_PROPERTY
U+W
SciTegic.value.DoubleValue
-15.865

@<SCITEGIC>MOL_PROPERTY
Grad RMS
SciTegic.value.DoubleValue
0.000000

@<SCITEGIC>MOL_PROPERTY
U
SciTegic.value.DoubleValue
44.664

@<SCITEGIC>MOL_PROPERTY
W
SciTegic.value.DoubleValue
-60.529

@<SCITEGIC>MOL_PROPERTY
W(PB)
SciTegic.value.DoubleValue
-62.309

@<SCITEGIC>MOL_PROPERTY
W(SA)
SciTegic.value.DoubleValue
1.780

@<SCITEGIC>MOL_PROPERTY
Valence
SciTegic.value.DoubleValue
0.872

@<SCITEGIC>MOL_PROPERTY
Coulomb
SciTegic.value.DoubleValue
43.648

@<SCITEGIC>MOL_PROPERTY
VdW
SciTegic.value.DoubleValue
0.144

@<SCITEGIC>MOL_PROPERTY
VdW6
SciTegic.value.DoubleValue
-2.370

@<SCITEGIC>MOL_PROPERTY
VdW12
SciTegic.value.DoubleValue
2.515

@<SCITEGIC>MOL_PROPERTY
Bond
SciTegic.value.DoubleValue
0.080

@<SCITEGIC>MOL_PROPERTY
Angle
SciTegic.value.DoubleValue
0.376

@<SCITEGIC>MOL_PROPERTY
Pdih
SciTegic.value.DoubleValue
0.416

@<SCITEGIC>MOL_PROPERTY
Idih
SciTegic.value.DoubleValue
0.000

@<SCITEGIC>MOL_PROPERTY
Tether
SciTegic.value.DoubleValue
0.000

@<TRIPOS>MOLECULE
guest-1_confgen4.mol2 : confsearch ligand conformer 602
          17          16           1
SMALL
USER_CHARGES
 
@<TRIPOS>ATOM
       1    N1      18.248785   17.376590   21.842336 N.4        1 MOL1        -0.5891
       2    H1      17.681126   17.577109   22.671314 H          1 MOL1         0.3726
       3    H2      18.873202   16.601671   22.085750 H          1 MOL1         0.3726
       4    H3      17.608461   17.026383   21.122485 H          1 MOL1         0.3726
       5    C1      19.015004   18.596174   21.370237 C.3        1 MOL1         0.0314
       6    H4      18.288980   19.367892   21.100515 H          1 MOL1         0.0999
       7    H5      19.569107   18.317052   20.470293 H          1 MOL1         0.0999
       8    C2      19.988136   19.148802   22.429281 C.3        1 MOL1        -0.1308
       9    H6      19.427671   19.388424   23.342702 H          1 MOL1         0.1025
      10    H7      20.716294   18.373156   22.701398 H          1 MOL1         0.1025
      11    C3      20.734663   20.415686   21.950001 C.3        1 MOL1        -0.1243
      12    H8      21.347810   20.802627   22.776020 H          1 MOL1         0.1025
      13    H9      20.008264   21.204585   21.708828 H          1 MOL1         0.1025
      14    C4      21.643393   20.155105   20.726782 C.3        1 MOL1        -0.2258
      15    H10     22.375656   19.365426   20.939673 H          1 MOL1         0.1036
      16    H11     22.198880   21.063404   20.459510 H          1 MOL1         0.1036
      17    H12     21.059951   19.853686   19.847673 H          1 MOL1         0.1036
@<TRIPOS>BOND
    1     1     2    1
    2     1     3    1
    3     1     4    1
    4     1     5    1
    5     5     6    1
    6     5     7    1
    7     5     8    1
    8     8     9    1
    9     8    10    1
   10     8    11    1
   11    11    12    1
   12    11    13    1
   13    11    14    1
   14    14    15    1
   15    14    16    1
   16    14    17    1
@<TRIPOS>SUBSTRUCTURE
       1 MOL1            1 RESIDUE      1      MOL     
@<SCITEGIC>MOL_PROPERTY
VConf Rank
SciTegic.value.IntegerValue
602

@<SCITEGIC>MOL_PROPERTY
Conf_Id
SciTegic.value.IntegerValue
36

@<SCITEGIC>MOL_PROPERTY
Delta U+W
SciTegic.value.DoubleValue
0.275

@<SCITEGIC>MOL_PROPERTY
U+W
SciTegic.value.DoubleValue
-15.590

@<SCITEGIC>MOL_PROPERTY
Grad RMS
SciTegic.value.DoubleValue
0.000000

@<SCITEGIC>MOL_PROPERTY
U
SciTegic.value.DoubleValue
45.174

@<SCITEGIC>MOL_PROPERTY
W
SciTegic.value.DoubleValue
-60.765

@<SCITEGIC>MOL_PROPERTY
W(PB)
SciTegic.value.DoubleValue
-62.518

@<SCITEGIC>MOL_PROPERTY
W(SA)
SciTegic.value.DoubleValue
1.754

@<SCITEGIC>MOL_PROPERTY
Valence
SciTegic.value.DoubleValue
1.161

@<SCITEGIC>MOL_PROPERTY
Coulomb
SciTegic.value.DoubleValue
43.789

@<SCITEGIC>MOL_PROPERTY
VdW
SciTegic.value.DoubleValue
0.224

@<SCITEGIC>MOL_PROPERTY
VdW6
SciTegic.value.DoubleValue
-2.897

@<SCITEGIC>MOL_PROPERTY
VdW12
SciTegic.value.DoubleValue
3.121

@<SCITEGIC>MOL_PROPERTY
Bond
SciTegic.value.DoubleValue
0.100

@<SCITEGIC>MOL_PROPERTY
Angle
SciTegic.value.DoubleValue
0.500

@<SCITEGIC>MOL_PROPERTY
Pdih
SciTegic.value.DoubleValue
0.561

@<SCITEGIC>MOL_PROPERTY
Idih
SciTegic.value.DoubleValue
0.000

@<SCITEGIC>MOL_PROPERTY
Tether
SciTegic.value.DoubleValue
0.000

@<TRIPOS>MOLECULE
guest-1_confgen4.mol2 : confsearch ligand conformer 603
          17          16           1
SMALL
USER_CHARGES
 
@<TRIPOS>ATOM
       1    N1      18.357470   18.910052   22.576003 N.4        1 MOL1        -0.5891
       2    H1      19.156136   18.606939   23.139119 H          1 MOL1         0.3726
       3    H2      17.872237   18.064389   22.261548 H          1 MOL1         0.3726
       4    H3      17.715528   19.405190   23.203356 H          1 MOL1         0.3726
       5    C1      18.788908   19.778675   21.410076 C.3        1 MOL1         0.0314
       6    H4      19.237291   20.694156   21.805234 H          1 MOL1         0.0999
       7    H5      17.882515   20.054730   20.864382 H          1 MOL1         0.0999
       8    C2      19.771921   19.093094   20.437822 C.3        1 MOL1        -0.1308
       9    H6      19.442178   18.066043   20.232480 H          1 MOL1         0.1025
      10    H7      19.718676   19.624029   19.478073 H          1 MOL1         0.1025
      11    C3      21.249656   19.101537   20.905727 C.3        1 MOL1        -0.1243
      12    H8      21.586715   20.138112   21.046878 H          1 MOL1         0.1025
      13    H9      21.870466   18.687474   20.098797 H          1 MOL1         0.1025
      14    C4      21.516103   18.293134   22.195832 C.3        1 MOL1        -0.2258
      15    H10     21.086336   18.786143   23.075558 H          1 MOL1         0.1036
      16    H11     22.595881   18.203194   22.372315 H          1 MOL1         0.1036
      17    H12     21.105179   17.277825   22.122061 H          1 MOL1         0.1036
@<TRIPOS>BOND
    1     1     2    1
    2     1     3    1
    3     1     4    1
    4     1     5    1
    5     5     6    1
    6     5     7    1
    7     5     8    1
    8     8     9    1
    9     8    10    1
   10     8    11    1
   11    11    12    1
   12    11    13    1
   13    11    14    1
   14    14    15    1
   15    14    16    1
   16    14    17    1
@<TRIPOS>SUBSTRUCTURE
       1 MOL1            1 RESIDUE      1      MOL     
@<SCITEGIC>MOL_PROPERTY
VConf Rank
SciTegic.value.IntegerValue
603

@<SCITEGIC>MOL_PROPERTY
Conf_Id
SciTegic.value.IntegerValue
19

@<SCITEGIC>MOL_PROPERTY
Delta U+W
SciTegic.value.DoubleValue
2.662

@<SCITEGIC>MOL_PROPERTY
U+W
SciTegic.value.DoubleValue
-13.203

@<SCITEGIC>MOL_PROPERTY
Grad RMS
SciTegic.value.DoubleValue
0.000000

@<SCITEGIC>MOL_PROPERTY
U
SciTegic.value.DoubleValue
47.423

@<SCITEGIC>MOL_PROPERTY
W
SciTegic.value.DoubleValue
-60.626

@<SCITEGIC>MOL_PROPERTY
W(PB)
SciTegic.value.DoubleValue
-62.328

@<SCITEGIC>MOL_PROPERTY
W(SA)
SciTegic.value.DoubleValue
1.702

@<SCITEGIC>MOL_PROPERTY
Valence
SciTegic.value.DoubleValue
2.414

@<SCITEGIC>MOL_PROPERTY
Coulomb
SciTegic.value.DoubleValue
44.831

@<SCITEGIC>MOL_PROPERTY
VdW
SciTegic.value.DoubleValue
0.178

@<SCITEGIC>MOL_PROPERTY
VdW6
SciTegic.value.DoubleValue
-3.743

@<SCITEGIC>MOL_PROPERTY
VdW12
SciTegic.value.DoubleValue
3.921

@<SCITEGIC>MOL_PROPERTY
Bond
SciTegic.value.DoubleValue
0.138

@<SCITEGIC>MOL_PROPERTY
Angle
SciTegic.value.DoubleValue
0.941

@<SCITEGIC>MOL_PROPERTY
Pdih
SciTegic.value.DoubleValue
1.335

@<SCITEGIC>MOL_PROPERTY
Idih
SciTegic.value.DoubleValue
0.000

@<SCITEGIC>MOL_PROPERTY
Tether
SciTegic.value.DoubleValue
0.000

@<TRIPOS>MOLECULE
guest-1_confgen4.mol2 : confsearch ligand conformer 604
          17          16           1
SMALL
USER_CHARGES
 
@<TRIPOS>ATOM
       1    N1      18.458927   20.039906   20.909766 N.4        1 MOL1        -0.5891
       2    H1      17.981692   20.373966   20.066277 H          1 MOL1         0.3726
       3    H2      18.055112   20.549844   21.701206 H          1 MOL1         0.3726
       4    H3      18.209373   19.054687   21.027712 H          1 MOL1         0.3726
       5    C1      19.960630   20.232934   20.822201 C.3        1 MOL1         0.0314
       6    H4      20.138689   21.304813   20.700109 H          1 MOL1         0.0999
       7    H5      20.325071   19.725630   19.924912 H          1 MOL1         0.0999
       8    C2      20.737807   19.731702   22.057666 C.3        1 MOL1        -0.1308
       9    H6      21.709922   20.242238   22.071579 H          1 MOL1         0.1025
      10    H7      20.222198   20.040758   22.976557 H          1 MOL1         0.1025
      11    C3      21.001432   18.204318   22.075025 C.3        1 MOL1        -0.1243
      12    H8      21.646269   17.974236   22.934815 H          1 MOL1         0.1025
      13    H9      21.573251   17.917791   21.181186 H          1 MOL1         0.1025
      14    C4      19.725879   17.336707   22.170395 C.3        1 MOL1        -0.2258
      15    H10     19.084172   17.661178   22.999902 H          1 MOL1         0.1036
      16    H11     19.992377   16.286471   22.346853 H          1 MOL1         0.1036
      17    H12     19.146410   17.369668   21.240443 H          1 MOL1         0.1036
@<TRIPOS>BOND
    1     1     2    1
    2     1     3    1
    3     1     4    1
    4     1     5    1
    5     5     6    1
    6     5     7    1
    7     5     8    1
    8     8     9    1
    9     8    10    1
   10     8    11    1
   11    11    12    1
   12    11    13    1
   13    11    14    1
   14    14    15    1
   15    14    16    1
   16    14    17    1
@<TRIPOS>SUBSTRUCTURE
       1 MOL1            1 RESIDUE      1      MOL     
@<SCITEGIC>MOL_PROPERTY
VConf Rank
SciTegic.value.IntegerValue
604

@<SCITEGIC>MOL_PROPERTY
Conf_Id
SciTegic.value.IntegerValue
44

@<SCITEGIC>MOL_PROPERTY
Delta U+W
SciTegic.value.DoubleValue
2.712

@<SCITEGIC>MOL_PROPERTY
U+W
SciTegic.value.DoubleValue
-13.153

@<SCITEGIC>MOL_PROPERTY
Grad RMS
SciTegic.value.DoubleValue
0.000000

@<SCITEGIC>MOL_PROPERTY
U
SciTegic.value.DoubleValue
47.423

@<SCITEGIC>MOL_PROPERTY
W
SciTegic.value.DoubleValue
-60.576

@<SCITEGIC>MOL_PROPERTY
W(PB)
SciTegic.value.DoubleValue
-62.262

@<SCITEGIC>MOL_PROPERTY
W(SA)
SciTegic.value.DoubleValue
1.687

@<SCITEGIC>MOL_PROPERTY
Valence
SciTegic.value.DoubleValue
2.414

@<SCITEGIC>MOL_PROPERTY
Coulomb
SciTegic.value.DoubleValue
44.831

@<SCITEGIC>MOL_PROPERTY
VdW
SciTegic.value.DoubleValue
0.178

@<SCITEGIC>MOL_PROPERTY
VdW6
SciTegic.value.DoubleValue
-3.743

@<SCITEGIC>MOL_PROPERTY
VdW12
SciTegic.value.DoubleValue
3.922

@<SCITEGIC>MOL_PROPERTY
Bond
SciTegic.value.DoubleValue
0.138

@<SCITEGIC>MOL_PROPERTY
Angle
SciTegic.value.DoubleValue
0.941

@<SCITEGIC>MOL_PROPERTY
Pdih
SciTegic.value.DoubleValue
1.335

@<SCITEGIC>MOL_PROPERTY
Idih
SciTegic.value.DoubleValue
0.000

@<SCITEGIC>MOL_PROPERTY
Tether
SciTegic.value.DoubleValue
0.000

@<TRIPOS>MOLECULE
guest-1_confgen4.mol2 : confsearch ligand conformer 605
          17          16           1
SMALL
USER_CHARGES
 
@<TRIPOS>ATOM
       1    N1      18.228124   18.742658   22.599119 N.4        1 MOL1        -0.5891
       2    H1      18.348106   19.755070   22.503876 H          1 MOL1         0.3726
       3    H2      18.407512   18.507369   23.579852 H          1 MOL1         0.3726
       4    H3      17.239224   18.540447   22.420635 H          1 MOL1         0.3726
       5    C1      19.138938   17.977975   21.658090 C.3        1 MOL1         0.0314
       6    H4      18.875686   18.252319   20.633279 H          1 MOL1         0.0999
       7    H5      18.931183   16.912192   21.786478 H          1 MOL1         0.0999
       8    C2      20.640721   18.237935   21.896812 C.3        1 MOL1        -0.1308
       9    H6      20.903886   17.921513   22.914834 H          1 MOL1         0.1025
      10    H7      21.220172   17.597776   21.218403 H          1 MOL1         0.1025
      11    C3      21.065148   19.713459   21.691269 C.3        1 MOL1        -0.1243
      12    H8      22.141118   19.803910   21.896232 H          1 MOL1         0.1025
      13    H9      20.561731   20.356958   22.425526 H          1 MOL1         0.1025
      14    C4      20.780732   20.231966   20.262964 C.3        1 MOL1        -0.2258
      15    H10     21.274987   19.604707   19.509754 H          1 MOL1         0.1036
      16    H11     21.155918   21.256628   20.143501 H          1 MOL1         0.1036
      17    H12     19.705458   20.245881   20.044923 H          1 MOL1         0.1036
@<TRIPOS>BOND
    1     1     2    1
    2     1     3    1
    3     1     4    1
    4     1     5    1
    5     5     6    1
    6     5     7    1
    7     5     8    1
    8     8     9    1
    9     8    10    1
   10     8    11    1
   11    11    12    1
   12    11    13    1
   13    11    14    1
   14    14    15    1
   15    14    16    1
   16    14    17    1
@<TRIPOS>SUBSTRUCTURE
       1 MOL1            1 RESIDUE      1      MOL     
@<SCITEGIC>MOL_PROPERTY
VConf Rank
SciTegic.value.IntegerValue
605

@<SCITEGIC>MOL_PROPERTY
Conf_Id
SciTegic.value.IntegerValue
1

@<SCITEGIC>MOL_PROPERTY
Delta U+W
SciTegic.value.DoubleValue
0.685

@<SCITEGIC>MOL_PROPERTY
U+W
SciTegic.value.DoubleValue
-15.179

@<SCITEGIC>MOL_PROPERTY
Grad RMS
SciTegic.value.DoubleValue
0.000000

@<SCITEGIC>MOL_PROPERTY
U
SciTegic.value.DoubleValue
45.697

@<SCITEGIC>MOL_PROPERTY
W
SciTegic.value.DoubleValue
-60.876

@<SCITEGIC>MOL_PROPERTY
W(PB)
SciTegic.value.DoubleValue
-62.586

@<SCITEGIC>MOL_PROPERTY
W(SA)
SciTegic.value.DoubleValue
1.710

@<SCITEGIC>MOL_PROPERTY
Valence
SciTegic.value.DoubleValue
1.263

@<SCITEGIC>MOL_PROPERTY
Coulomb
SciTegic.value.DoubleValue
44.179

@<SCITEGIC>MOL_PROPERTY
VdW
SciTegic.value.DoubleValue
0.255

@<SCITEGIC>MOL_PROPERTY
VdW6
SciTegic.value.DoubleValue
-3.552

@<SCITEGIC>MOL_PROPERTY
VdW12
SciTegic.value.DoubleValue
3.807

@<SCITEGIC>MOL_PROPERTY
Bond
SciTegic.value.DoubleValue
0.125

@<SCITEGIC>MOL_PROPERTY
Angle
SciTegic.value.DoubleValue
0.616

@<SCITEGIC>MOL_PROPERTY
Pdih
SciTegic.value.DoubleValue
0.521

@<SCITEGIC>MOL_PROPERTY
Idih
SciTegic.value.DoubleValue
0.000

@<SCITEGIC>MOL_PROPERTY
Tether
SciTegic.value.DoubleValue
0.000

@<TRIPOS>MOLECULE
guest-1_confgen4.mol2 : confsearch ligand conformer 606
          17          16           1
SMALL
USER_CHARGES
 
@<TRIPOS>ATOM
       1    N1      19.543955   20.286448   23.089506 N.4        1 MOL1        -0.5891
       2    H1      20.270793   20.246826   23.810278 H          1 MOL1         0.3726
       3    H2      18.940899   19.469698   23.222517 H          1 MOL1         0.3726
       4    H3      18.973615   21.114875   23.287211 H          1 MOL1         0.3726
       5    C1      20.133694   20.327899   21.692957 C.3        1 MOL1         0.0314
       6    H4      20.731595   21.239669   21.610931 H          1 MOL1         0.0999
       7    H5      19.309567   20.399038   20.978422 H          1 MOL1         0.0999
       8    C2      21.013854   19.107612   21.352167 C.3        1 MOL1        -0.1308
       9    H6      21.446631   19.254572   20.353713 H          1 MOL1         0.1025
      10    H7      21.861015   19.068238   22.049673 H          1 MOL1         0.1025
      11    C3      20.257390   17.756237   21.385438 C.3        1 MOL1        -0.1243
      12    H8      19.896337   17.550559   22.402292 H          1 MOL1         0.1025
      13    H9      20.963969   16.949294   21.145663 H          1 MOL1         0.1025
      14    C4      19.074614   17.699779   20.391631 C.3        1 MOL1        -0.2258
      15    H10     18.610130   16.705237   20.402014 H          1 MOL1         0.1036
      16    H11     19.410807   17.901388   19.366255 H          1 MOL1         0.1036
      17    H12     18.297122   18.430673   20.647072 H          1 MOL1         0.1036
@<TRIPOS>BOND
    1     1     2    1
    2     1     3    1
    3     1     4    1
    4     1     5    1
    5     5     6    1
    6     5     7    1
    7     5     8    1
    8     8     9    1
    9     8    10    1
   10     8    11    1
   11    11    12    1
   12    11    13    1
   13    11    14    1
   14    14    15    1
   15    14    16    1
   16    14    17    1
@<TRIPOS>SUBSTRUCTURE
       1 MOL1            1 RESIDUE      1      MOL     
@<SCITEGIC>MOL_PROPERTY
VConf Rank
SciTegic.value.IntegerValue
606

@<SCITEGIC>MOL_PROPERTY
Conf_Id
SciTegic.value.IntegerValue
43

@<SCITEGIC>MOL_PROPERTY
Delta U+W
SciTegic.value.DoubleValue
0.642

@<SCITEGIC>MOL_PROPERTY
U+W
SciTegic.value.DoubleValue
-15.222

@<SCITEGIC>MOL_PROPERTY
Grad RMS
SciTegic.value.DoubleValue
0.000000

@<SCITEGIC>MOL_PROPERTY
U
SciTegic.value.DoubleValue
45.697

@<SCITEGIC>MOL_PROPERTY
W
SciTegic.value.DoubleValue
-60.919

@<SCITEGIC>MOL_PROPERTY
W(PB)
SciTegic.value.DoubleValue
-62.631

@<SCITEGIC>MOL_PROPERTY
W(SA)
SciTegic.value.DoubleValue
1.712

@<SCITEGIC>MOL_PROPERTY
Valence
SciTegic.value.DoubleValue
1.262

@<SCITEGIC>MOL_PROPERTY
Coulomb
SciTegic.value.DoubleValue
44.179

@<SCITEGIC>MOL_PROPERTY
VdW
SciTegic.value.DoubleValue
0.255

@<SCITEGIC>MOL_PROPERTY
VdW6
SciTegic.value.DoubleValue
-3.552

@<SCITEGIC>MOL_PROPERTY
VdW12
SciTegic.value.DoubleValue
3.807

@<SCITEGIC>MOL_PROPERTY
Bond
SciTegic.value.DoubleValue
0.125

@<SCITEGIC>MOL_PROPERTY
Angle
SciTegic.value.DoubleValue
0.616

@<SCITEGIC>MOL_PROPERTY
Pdih
SciTegic.value.DoubleValue
0.521

@<SCITEGIC>MOL_PROPERTY
Idih
SciTegic.value.DoubleValue
0.000

@<SCITEGIC>MOL_PROPERTY
Tether
SciTegic.value.DoubleValue
0.000

@<TRIPOS>MOLECULE
guest-1_confgen4.mol2 : confsearch ligand conformer 607
          17          16           1
SMALL
USER_CHARGES
 
@<TRIPOS>ATOM
       1    N1      18.889513   18.987843   23.935775 N.4        1 MOL1        -0.5891
       2    H1      18.178790   19.709012   23.779303 H          1 MOL1         0.3726
       3    H2      19.659123   19.430112   24.447433 H          1 MOL1         0.3726
       4    H3      18.474220   18.294590   24.566522 H          1 MOL1         0.3726
       5    C1      19.357077   18.360146   22.637801 C.3        1 MOL1         0.0314
       6    H4      18.494932   17.883282   22.163637 H          1 MOL1         0.0999
       7    H5      20.086743   17.583338   22.882096 H          1 MOL1         0.0999
       8    C2      19.986928   19.374363   21.665734 C.3        1 MOL1        -0.1308
       9    H6      19.256503   20.161237   21.434864 H          1 MOL1         0.1025
      10    H7      20.842916   19.862211   22.150789 H          1 MOL1         0.1025
      11    C3      20.448945   18.694645   20.358047 C.3        1 MOL1        -0.1243
      12    H8      19.593169   18.203303   19.873737 H          1 MOL1         0.1025
      13    H9      21.177694   17.904698   20.588772 H          1 MOL1         0.1025
      14    C4      21.081816   19.705973   19.377922 C.3        1 MOL1        -0.2258
      15    H10     21.403081   19.203759   18.456174 H          1 MOL1         0.1036
      16    H11     21.961991   20.189068   19.821901 H          1 MOL1         0.1036
      17    H12     20.364966   20.490064   19.101274 H          1 MOL1         0.1036
@<TRIPOS>BOND
    1     1     2    1
    2     1     3    1
    3     1     4    1
    4     1     5    1
    5     5     6    1
    6     5     7    1
    7     5     8    1
    8     8     9    1
    9     8    10    1
   10     8    11    1
   11    11    12    1
   12    11    13    1
   13    11    14    1
   14    14    15    1
   15    14    16    1
   16    14    17    1
@<TRIPOS>SUBSTRUCTURE
       1 MOL1            1 RESIDUE      1      MOL     
@<SCITEGIC>MOL_PROPERTY
VConf Rank
SciTegic.value.IntegerValue
607

@<SCITEGIC>MOL_PROPERTY
Conf_Id
SciTegic.value.IntegerValue
7

@<SCITEGIC>MOL_PROPERTY
Delta U+W
SciTegic.value.DoubleValue
0.000

@<SCITEGIC>MOL_PROPERTY
U+W
SciTegic.value.DoubleValue
-15.865

@<SCITEGIC>MOL_PROPERTY
Grad RMS
SciTegic.value.DoubleValue
0.000000

@<SCITEGIC>MOL_PROPERTY
U
SciTegic.value.DoubleValue
44.664

@<SCITEGIC>MOL_PROPERTY
W
SciTegic.value.DoubleValue
-60.529

@<SCITEGIC>MOL_PROPERTY
W(PB)
SciTegic.value.DoubleValue
-62.309

@<SCITEGIC>MOL_PROPERTY
W(SA)
SciTegic.value.DoubleValue
1.780

@<SCITEGIC>MOL_PROPERTY
Valence
SciTegic.value.DoubleValue
0.872

@<SCITEGIC>MOL_PROPERTY
Coulomb
SciTegic.value.DoubleValue
43.648

@<SCITEGIC>MOL_PROPERTY
VdW
SciTegic.value.DoubleValue
0.144

@<SCITEGIC>MOL_PROPERTY
VdW6
SciTegic.value.DoubleValue
-2.370

@<SCITEGIC>MOL_PROPERTY
VdW12
SciTegic.value.DoubleValue
2.515

@<SCITEGIC>MOL_PROPERTY
Bond
SciTegic.value.DoubleValue
0.080

@<SCITEGIC>MOL_PROPERTY
Angle
SciTegic.value.DoubleValue
0.376

@<SCITEGIC>MOL_PROPERTY
Pdih
SciTegic.value.DoubleValue
0.416

@<SCITEGIC>MOL_PROPERTY
Idih
SciTegic.value.DoubleValue
0.000

@<SCITEGIC>MOL_PROPERTY
Tether
SciTegic.value.DoubleValue
0.000

@<TRIPOS>MOLECULE
guest-1_confgen4.mol2 : confsearch ligand conformer 608
          17          16           1
SMALL
USER_CHARGES
 
@<TRIPOS>ATOM
       1    N1      22.009023   19.204361   20.400620 N.4        1 MOL1        -0.5891
       2    H1      21.941122   18.593961   19.580589 H          1 MOL1         0.3726
       3    H2      22.598340   18.722405   21.086237 H          1 MOL1         0.3726
       4    H3      22.521904   20.041340   20.105218 H          1 MOL1         0.3726
       5    C1      20.645767   19.548974   20.966421 C.3        1 MOL1         0.0314
       6    H4      20.085465   20.084709   20.195410 H          1 MOL1         0.0999
       7    H5      20.794499   20.223673   21.813474 H          1 MOL1         0.0999
       8    C2      19.847232   18.312202   21.421058 C.3        1 MOL1        -0.1308
       9    H6      19.738071   17.622808   20.573298 H          1 MOL1         0.1025
      10    H7      20.410756   17.773210   22.194243 H          1 MOL1         0.1025
      11    C3      18.443251   18.673655   21.959758 C.3        1 MOL1        -0.1243
      12    H8      17.899586   17.746539   22.189681 H          1 MOL1         0.1025
      13    H9      17.865868   19.183851   21.175851 H          1 MOL1         0.1025
      14    C4      18.491485   19.557329   23.227335 C.3        1 MOL1        -0.2258
      15    H10     19.068696   19.072369   24.025312 H          1 MOL1         0.1036
      16    H11     17.478373   19.737858   23.609459 H          1 MOL1         0.1036
      17    H12     18.945944   20.534528   23.020838 H          1 MOL1         0.1036
@<TRIPOS>BOND
    1     1     2    1
    2     1     3    1
    3     1     4    1
    4     1     5    1
    5     5     6    1
    6     5     7    1
    7     5     8    1
    8     8     9    1
    9     8    10    1
   10     8    11    1
   11    11    12    1
   12    11    13    1
   13    11    14    1
   14    14    15    1
   15    14    16    1
   16    14    17    1
@<TRIPOS>SUBSTRUCTURE
       1 MOL1            1 RESIDUE      1      MOL     
@<SCITEGIC>MOL_PROPERTY
VConf Rank
SciTegic.value.IntegerValue
608

@<SCITEGIC>MOL_PROPERTY
Conf_Id
SciTegic.value.IntegerValue
36

@<SCITEGIC>MOL_PROPERTY
Delta U+W
SciTegic.value.DoubleValue
0.275

@<SCITEGIC>MOL_PROPERTY
U+W
SciTegic.value.DoubleValue
-15.590

@<SCITEGIC>MOL_PROPERTY
Grad RMS
SciTegic.value.DoubleValue
0.000000

@<SCITEGIC>MOL_PROPERTY
U
SciTegic.value.DoubleValue
45.174

@<SCITEGIC>MOL_PROPERTY
W
SciTegic.value.DoubleValue
-60.765

@<SCITEGIC>MOL_PROPERTY
W(PB)
SciTegic.value.DoubleValue
-62.518

@<SCITEGIC>MOL_PROPERTY
W(SA)
SciTegic.value.DoubleValue
1.754

@<SCITEGIC>MOL_PROPERTY
Valence
SciTegic.value.DoubleValue
1.161

@<SCITEGIC>MOL_PROPERTY
Coulomb
SciTegic.value.DoubleValue
43.789

@<SCITEGIC>MOL_PROPERTY
VdW
SciTegic.value.DoubleValue
0.224

@<SCITEGIC>MOL_PROPERTY
VdW6
SciTegic.value.DoubleValue
-2.897

@<SCITEGIC>MOL_PROPERTY
VdW12
SciTegic.value.DoubleValue
3.121

@<SCITEGIC>MOL_PROPERTY
Bond
SciTegic.value.DoubleValue
0.100

@<SCITEGIC>MOL_PROPERTY
Angle
SciTegic.value.DoubleValue
0.500

@<SCITEGIC>MOL_PROPERTY
Pdih
SciTegic.value.DoubleValue
0.561

@<SCITEGIC>MOL_PROPERTY
Idih
SciTegic.value.DoubleValue
0.000

@<SCITEGIC>MOL_PROPERTY
Tether
SciTegic.value.DoubleValue
0.000

@<TRIPOS>MOLECULE
guest-1_confgen4.mol2 : confsearch ligand conformer 609
          17          16           1
SMALL
USER_CHARGES
 
@<TRIPOS>ATOM
       1    N1      18.428000   18.444932   20.663675 N.4        1 MOL1        -0.5891
       2    H1      18.999104   19.087260   20.108608 H          1 MOL1         0.3726
       3    H2      17.647775   18.988299   21.045095 H          1 MOL1         0.3726
       4    H3      18.024931   17.761013   20.015128 H          1 MOL1         0.3726
       5    C1      19.236984   17.775861   21.758170 C.3        1 MOL1         0.0314
       6    H4      20.009385   17.158251   21.292062 H          1 MOL1         0.0999
       7    H5      18.556065   17.113574   22.299708 H          1 MOL1         0.0999
       8    C2      19.885206   18.756774   22.757786 C.3        1 MOL1        -0.1308
       9    H6      19.164859   19.535926   23.040189 H          1 MOL1         0.1025
      10    H7      20.103665   18.200463   23.679003 H          1 MOL1         0.1025
      11    C3      21.207015   19.398107   22.263601 C.3        1 MOL1        -0.1243
      12    H8      21.940935   18.609853   22.044426 H          1 MOL1         0.1025
      13    H9      21.633171   19.989760   23.085992 H          1 MOL1         0.1025
      14    C4      21.050305   20.313785   21.028345 C.3        1 MOL1        -0.2258
      15    H10     20.827127   19.735262   20.124366 H          1 MOL1         0.1036
      16    H11     21.983421   20.860203   20.838928 H          1 MOL1         0.1036
      17    H12     20.255249   21.055396   21.180178 H          1 MOL1         0.1036
@<TRIPOS>BOND
    1     1     2    1
    2     1     3    1
    3     1     4    1
    4     1     5    1
    5     5     6    1
    6     5     7    1
    7     5     8    1
    8     8     9    1
    9     8    10    1
   10     8    11    1
   11    11    12    1
   12    11    13    1
   13    11    14    1
   14    14    15    1
   15    14    16    1
   16    14    17    1
@<TRIPOS>SUBSTRUCTURE
       1 MOL1            1 RESIDUE      1      MOL     
@<SCITEGIC>MOL_PROPERTY
VConf Rank
SciTegic.value.IntegerValue
609

@<SCITEGIC>MOL_PROPERTY
Conf_Id
SciTegic.value.IntegerValue
19

@<SCITEGIC>MOL_PROPERTY
Delta U+W
SciTegic.value.DoubleValue
2.662

@<SCITEGIC>MOL_PROPERTY
U+W
SciTegic.value.DoubleValue
-13.203

@<SCITEGIC>MOL_PROPERTY
Grad RMS
SciTegic.value.DoubleValue
0.000000

@<SCITEGIC>MOL_PROPERTY
U
SciTegic.value.DoubleValue
47.423

@<SCITEGIC>MOL_PROPERTY
W
SciTegic.value.DoubleValue
-60.626

@<SCITEGIC>MOL_PROPERTY
W(PB)
SciTegic.value.DoubleValue
-62.328

@<SCITEGIC>MOL_PROPERTY
W(SA)
SciTegic.value.DoubleValue
1.702

@<SCITEGIC>MOL_PROPERTY
Valence
SciTegic.value.DoubleValue
2.414

@<SCITEGIC>MOL_PROPERTY
Coulomb
SciTegic.value.DoubleValue
44.831

@<SCITEGIC>MOL_PROPERTY
VdW
SciTegic.value.DoubleValue
0.178

@<SCITEGIC>MOL_PROPERTY
VdW6
SciTegic.value.DoubleValue
-3.743

@<SCITEGIC>MOL_PROPERTY
VdW12
SciTegic.value.DoubleValue
3.921

@<SCITEGIC>MOL_PROPERTY
Bond
SciTegic.value.DoubleValue
0.138

@<SCITEGIC>MOL_PROPERTY
Angle
SciTegic.value.DoubleValue
0.941

@<SCITEGIC>MOL_PROPERTY
Pdih
SciTegic.value.DoubleValue
1.335

@<SCITEGIC>MOL_PROPERTY
Idih
SciTegic.value.DoubleValue
0.000

@<SCITEGIC>MOL_PROPERTY
Tether
SciTegic.value.DoubleValue
0.000

@<TRIPOS>MOLECULE
guest-1_confgen4.mol2 : confsearch ligand conformer 610
          17          16           1
SMALL
USER_CHARGES
 
@<TRIPOS>ATOM
       1    N1      19.538544   20.886495   21.512131 N.4        1 MOL1        -0.5891
       2    H1      19.447835   21.764750   22.032961 H          1 MOL1         0.3726
       3    H2      19.179107   21.061958   20.568999 H          1 MOL1         0.3726
       4    H3      20.538777   20.691157   21.421458 H          1 MOL1         0.3726
       5    C1      18.802852   19.748333   22.192854 C.3        1 MOL1         0.0314
       6    H4      17.749254   20.035626   22.246984 H          1 MOL1         0.0999
       7    H5      19.179635   19.652068   23.214651 H          1 MOL1         0.0999
       8    C2      18.917561   18.392900   21.463983 C.3        1 MOL1        -0.1308
       9    H6      18.080754   17.763201   21.794258 H          1 MOL1         0.1025
      10    H7      18.779867   18.534455   20.383829 H          1 MOL1         0.1025
      11    C3      20.233106   17.622195   21.743374 C.3        1 MOL1        -0.1243
      12    H8      20.164093   16.635074   21.265024 H          1 MOL1         0.1025
      13    H9      20.327726   17.431286   22.821623 H          1 MOL1         0.1025
      14    C4      21.508819   18.328966   21.231603 C.3        1 MOL1        -0.2258
      15    H10     21.408245   18.619064   20.177620 H          1 MOL1         0.1036
      16    H11     22.373663   17.657472   21.310951 H          1 MOL1         0.1036
      17    H12     21.739373   19.221846   21.824300 H          1 MOL1         0.1036
@<TRIPOS>BOND
    1     1     2    1
    2     1     3    1
    3     1     4    1
    4     1     5    1
    5     5     6    1
    6     5     7    1
    7     5     8    1
    8     8     9    1
    9     8    10    1
   10     8    11    1
   11    11    12    1
   12    11    13    1
   13    11    14    1
   14    14    15    1
   15    14    16    1
   16    14    17    1
@<TRIPOS>SUBSTRUCTURE
       1 MOL1            1 RESIDUE      1      MOL     
@<SCITEGIC>MOL_PROPERTY
VConf Rank
SciTegic.value.IntegerValue
610

@<SCITEGIC>MOL_PROPERTY
Conf_Id
SciTegic.value.IntegerValue
44

@<SCITEGIC>MOL_PROPERTY
Delta U+W
SciTegic.value.DoubleValue
2.712

@<SCITEGIC>MOL_PROPERTY
U+W
SciTegic.value.DoubleValue
-13.153

@<SCITEGIC>MOL_PROPERTY
Grad RMS
SciTegic.value.DoubleValue
0.000000

@<SCITEGIC>MOL_PROPERTY
U
SciTegic.value.DoubleValue
47.423

@<SCITEGIC>MOL_PROPERTY
W
SciTegic.value.DoubleValue
-60.576

@<SCITEGIC>MOL_PROPERTY
W(PB)
SciTegic.value.DoubleValue
-62.262

@<SCITEGIC>MOL_PROPERTY
W(SA)
SciTegic.value.DoubleValue
1.687

@<SCITEGIC>MOL_PROPERTY
Valence
SciTegic.value.DoubleValue
2.414

@<SCITEGIC>MOL_PROPERTY
Coulomb
SciTegic.value.DoubleValue
44.831

@<SCITEGIC>MOL_PROPERTY
VdW
SciTegic.value.DoubleValue
0.178

@<SCITEGIC>MOL_PROPERTY
VdW6
SciTegic.value.DoubleValue
-3.743

@<SCITEGIC>MOL_PROPERTY
VdW12
SciTegic.value.DoubleValue
3.922

@<SCITEGIC>MOL_PROPERTY
Bond
SciTegic.value.DoubleValue
0.138

@<SCITEGIC>MOL_PROPERTY
Angle
SciTegic.value.DoubleValue
0.941

@<SCITEGIC>MOL_PROPERTY
Pdih
SciTegic.value.DoubleValue
1.335

@<SCITEGIC>MOL_PROPERTY
Idih
SciTegic.value.DoubleValue
0.000

@<SCITEGIC>MOL_PROPERTY
Tether
SciTegic.value.DoubleValue
0.000

@<TRIPOS>MOLECULE
guest-1_confgen4.mol2 : confsearch ligand conformer 611
          17          16           1
SMALL
USER_CHARGES
 
@<TRIPOS>ATOM
       1    N1      19.456624   20.592289   22.747527 N.4        1 MOL1        -0.5891
       2    H1      20.460040   20.422448   22.860470 H          1 MOL1         0.3726
       3    H2      18.999760   20.295918   23.615178 H          1 MOL1         0.3726
       4    H3      19.331042   21.607118   22.676678 H          1 MOL1         0.3726
       5    C1      18.897041   19.868917   21.537792 C.3        1 MOL1         0.0314
       6    H4      19.404527   20.251737   20.648573 H          1 MOL1         0.0999
       7    H5      17.836895   20.124388   21.458019 H          1 MOL1         0.0999
       8    C2      19.049203   18.335162   21.603851 C.3        1 MOL1        -0.1308
       9    H6      18.502296   17.956024   22.477290 H          1 MOL1         0.1025
      10    H7      18.561667   17.895602   20.723567 H          1 MOL1         0.1025
      11    C3      20.518956   17.850031   21.667332 C.3        1 MOL1        -0.1243
      12    H8      20.527026   16.752598   21.726328 H          1 MOL1         0.1025
      13    H9      20.994719   18.206585   22.591005 H          1 MOL1         0.1025
      14    C4      21.356219   18.293395   20.445768 C.3        1 MOL1        -0.2258
      15    H10     20.900846   17.947457   19.508736 H          1 MOL1         0.1036
      16    H11     22.369092   17.873791   20.500443 H          1 MOL1         0.1036
      17    H12     21.452690   19.385303   20.396990 H          1 MOL1         0.1036
@<TRIPOS>BOND
    1     1     2    1
    2     1     3    1
    3     1     4    1
    4     1     5    1
    5     5     6    1
    6     5     7    1
    7     5     8    1
    8     8     9    1
    9     8    10    1
   10     8    11    1
   11    11    12    1
   12    11    13    1
   13    11    14    1
   14    14    15    1
   15    14    16    1
   16    14    17    1
@<TRIPOS>SUBSTRUCTURE
       1 MOL1            1 RESIDUE      1      MOL     
@<SCITEGIC>MOL_PROPERTY
VConf Rank
SciTegic.value.IntegerValue
611

@<SCITEGIC>MOL_PROPERTY
Conf_Id
SciTegic.value.IntegerValue
1

@<SCITEGIC>MOL_PROPERTY
Delta U+W
SciTegic.value.DoubleValue
0.685

@<SCITEGIC>MOL_PROPERTY
U+W
SciTegic.value.DoubleValue
-15.179

@<SCITEGIC>MOL_PROPERTY
Grad RMS
SciTegic.value.DoubleValue
0.000000

@<SCITEGIC>MOL_PROPERTY
U
SciTegic.value.DoubleValue
45.697

@<SCITEGIC>MOL_PROPERTY
W
SciTegic.value.DoubleValue
-60.876

@<SCITEGIC>MOL_PROPERTY
W(PB)
SciTegic.value.DoubleValue
-62.586

@<SCITEGIC>MOL_PROPERTY
W(SA)
SciTegic.value.DoubleValue
1.710

@<SCITEGIC>MOL_PROPERTY
Valence
SciTegic.value.DoubleValue
1.263

@<SCITEGIC>MOL_PROPERTY
Coulomb
SciTegic.value.DoubleValue
44.179

@<SCITEGIC>MOL_PROPERTY
VdW
SciTegic.value.DoubleValue
0.255

@<SCITEGIC>MOL_PROPERTY
VdW6
SciTegic.value.DoubleValue
-3.552

@<SCITEGIC>MOL_PROPERTY
VdW12
SciTegic.value.DoubleValue
3.807

@<SCITEGIC>MOL_PROPERTY
Bond
SciTegic.value.DoubleValue
0.125

@<SCITEGIC>MOL_PROPERTY
Angle
SciTegic.value.DoubleValue
0.616

@<SCITEGIC>MOL_PROPERTY
Pdih
SciTegic.value.DoubleValue
0.521

@<SCITEGIC>MOL_PROPERTY
Idih
SciTegic.value.DoubleValue
0.000

@<SCITEGIC>MOL_PROPERTY
Tether
SciTegic.value.DoubleValue
0.000

@<TRIPOS>MOLECULE
guest-1_confgen4.mol2 : confsearch ligand conformer 612
          17          16           1
SMALL
USER_CHARGES
 
@<TRIPOS>ATOM
       1    N1      21.101979   17.917725   20.448299 N.4        1 MOL1        -0.5891
       2    H1      21.368572   17.045481   20.914664 H          1 MOL1         0.3726
       3    H2      21.683761   18.662126   20.843071 H          1 MOL1         0.3726
       4    H3      21.367223   17.821441   19.462883 H          1 MOL1         0.3726
       5    C1      19.623606   18.215705   20.607924 C.3        1 MOL1         0.0314
       6    H4      19.066993   17.402898   20.133515 H          1 MOL1         0.0999
       7    H5      19.402694   19.138261   20.064883 H          1 MOL1         0.0999
       8    C2      19.171473   18.355336   22.076256 C.3        1 MOL1        -0.1308
       9    H6      18.083761   18.504630   22.096146 H          1 MOL1         0.1025
      10    H7      19.359918   17.410352   22.602794 H          1 MOL1         0.1025
      11    C3      19.858700   19.514953   22.839516 C.3        1 MOL1        -0.1243
      12    H8      20.939889   19.333387   22.908207 H          1 MOL1         0.1025
      13    H9      19.487065   19.527035   23.873752 H          1 MOL1         0.1025
      14    C4      19.602753   20.897873   22.197783 C.3        1 MOL1        -0.2258
      15    H10     20.051815   21.693663   22.806084 H          1 MOL1         0.1036
      16    H11     18.527285   21.103384   22.119034 H          1 MOL1         0.1036
      17    H12     20.038501   20.963790   21.192931 H          1 MOL1         0.1036
@<TRIPOS>BOND
    1     1     2    1
    2     1     3    1
    3     1     4    1
    4     1     5    1
    5     5     6    1
    6     5     7    1
    7     5     8    1
    8     8     9    1
    9     8    10    1
   10     8    11    1
   11    11    12    1
   12    11    13    1
   13    11    14    1
   14    14    15    1
   15    14    16    1
   16    14    17    1
@<TRIPOS>SUBSTRUCTURE
       1 MOL1            1 RESIDUE      1      MOL     
@<SCITEGIC>MOL_PROPERTY
VConf Rank
SciTegic.value.IntegerValue
612

@<SCITEGIC>MOL_PROPERTY
Conf_Id
SciTegic.value.IntegerValue
43

@<SCITEGIC>MOL_PROPERTY
Delta U+W
SciTegic.value.DoubleValue
0.642

@<SCITEGIC>MOL_PROPERTY
U+W
SciTegic.value.DoubleValue
-15.222

@<SCITEGIC>MOL_PROPERTY
Grad RMS
SciTegic.value.DoubleValue
0.000000

@<SCITEGIC>MOL_PROPERTY
U
SciTegic.value.DoubleValue
45.697

@<SCITEGIC>MOL_PROPERTY
W
SciTegic.value.DoubleValue
-60.919

@<SCITEGIC>MOL_PROPERTY
W(PB)
SciTegic.value.DoubleValue
-62.631

@<SCITEGIC>MOL_PROPERTY
W(SA)
SciTegic.value.DoubleValue
1.712

@<SCITEGIC>MOL_PROPERTY
Valence
SciTegic.value.DoubleValue
1.262

@<SCITEGIC>MOL_PROPERTY
Coulomb
SciTegic.value.DoubleValue
44.179

@<SCITEGIC>MOL_PROPERTY
VdW
SciTegic.value.DoubleValue
0.255

@<SCITEGIC>MOL_PROPERTY
VdW6
SciTegic.value.DoubleValue
-3.552

@<SCITEGIC>MOL_PROPERTY
VdW12
SciTegic.value.DoubleValue
3.807

@<SCITEGIC>MOL_PROPERTY
Bond
SciTegic.value.DoubleValue
0.125

@<SCITEGIC>MOL_PROPERTY
Angle
SciTegic.value.DoubleValue
0.616

@<SCITEGIC>MOL_PROPERTY
Pdih
SciTegic.value.DoubleValue
0.521

@<SCITEGIC>MOL_PROPERTY
Idih
SciTegic.value.DoubleValue
0.000

@<SCITEGIC>MOL_PROPERTY
Tether
SciTegic.value.DoubleValue
0.000

@<TRIPOS>MOLECULE
guest-1_confgen4.mol2 : confsearch ligand conformer 613
          17          16           1
SMALL
USER_CHARGES
 
@<TRIPOS>ATOM
       1    N1      18.008864   19.428754   19.971536 N.4        1 MOL1        -0.5891
       2    H1      18.543878   19.334949   19.102826 H          1 MOL1         0.3726
       3    H2      17.882318   20.431405   20.139982 H          1 MOL1         0.3726
       4    H3      17.078228   19.039138   19.789811 H          1 MOL1         0.3726
       5    C1      18.691076   18.738875   21.136014 C.3        1 MOL1         0.0314
       6    H4      18.764354   17.673481   20.901303 H          1 MOL1         0.0999
       7    H5      18.052939   18.852487   22.016580 H          1 MOL1         0.0999
       8    C2      20.092799   19.300009   21.436953 C.3        1 MOL1        -0.1308
       9    H6      20.726118   19.198313   20.545575 H          1 MOL1         0.1025
      10    H7      20.017135   20.373217   21.657157 H          1 MOL1         0.1025
      11    C3      20.751710   18.570521   22.628256 C.3        1 MOL1        -0.1243
      12    H8      20.824702   17.495686   22.409791 H          1 MOL1         0.1025
      13    H9      20.116632   18.669212   23.520031 H          1 MOL1         0.1025
      14    C4      22.158270   19.128058   22.935982 C.3        1 MOL1        -0.2258
      15    H10     22.608851   18.597061   23.784551 H          1 MOL1         0.1036
      16    H11     22.113447   20.194610   23.192233 H          1 MOL1         0.1036
      17    H12     22.827085   19.011870   22.073199 H          1 MOL1         0.1036
@<TRIPOS>BOND
    1     1     2    1
    2     1     3    1
    3     1     4    1
    4     1     5    1
    5     5     6    1
    6     5     7    1
    7     5     8    1
    8     8     9    1
    9     8    10    1
   10     8    11    1
   11    11    12    1
   12    11    13    1
   13    11    14    1
   14    14    15    1
   15    14    16    1
   16    14    17    1
@<TRIPOS>SUBSTRUCTURE
       1 MOL1            1 RESIDUE      1      MOL     
@<SCITEGIC>MOL_PROPERTY
VConf Rank
SciTegic.value.IntegerValue
613

@<SCITEGIC>MOL_PROPERTY
Conf_Id
SciTegic.value.IntegerValue
7

@<SCITEGIC>MOL_PROPERTY
Delta U+W
SciTegic.value.DoubleValue
0.000

@<SCITEGIC>MOL_PROPERTY
U+W
SciTegic.value.DoubleValue
-15.865

@<SCITEGIC>MOL_PROPERTY
Grad RMS
SciTegic.value.DoubleValue
0.000000

@<SCITEGIC>MOL_PROPERTY
U
SciTegic.value.DoubleValue
44.664

@<SCITEGIC>MOL_PROPERTY
W
SciTegic.value.DoubleValue
-60.529

@<SCITEGIC>MOL_PROPERTY
W(PB)
SciTegic.value.DoubleValue
-62.309

@<SCITEGIC>MOL_PROPERTY
W(SA)
SciTegic.value.DoubleValue
1.780

@<SCITEGIC>MOL_PROPERTY
Valence
SciTegic.value.DoubleValue
0.872

@<SCITEGIC>MOL_PROPERTY
Coulomb
SciTegic.value.DoubleValue
43.648

@<SCITEGIC>MOL_PROPERTY
VdW
SciTegic.value.DoubleValue
0.144

@<SCITEGIC>MOL_PROPERTY
VdW6
SciTegic.value.DoubleValue
-2.370

@<SCITEGIC>MOL_PROPERTY
VdW12
SciTegic.value.DoubleValue
2.515

@<SCITEGIC>MOL_PROPERTY
Bond
SciTegic.value.DoubleValue
0.080

@<SCITEGIC>MOL_PROPERTY
Angle
SciTegic.value.DoubleValue
0.376

@<SCITEGIC>MOL_PROPERTY
Pdih
SciTegic.value.DoubleValue
0.416

@<SCITEGIC>MOL_PROPERTY
Idih
SciTegic.value.DoubleValue
0.000

@<SCITEGIC>MOL_PROPERTY
Tether
SciTegic.value.DoubleValue
0.000

@<TRIPOS>MOLECULE
guest-1_confgen4.mol2 : confsearch ligand conformer 614
          17          16           1
SMALL
USER_CHARGES
 
@<TRIPOS>ATOM
       1    N1      20.198140   21.241993   22.692729 N.4        1 MOL1        -0.5891
       2    H1      19.275697   21.675635   22.796182 H          1 MOL1         0.3726
       3    H2      20.672529   21.724278   21.923312 H          1 MOL1         0.3726
       4    H3      20.723828   21.456799   23.546165 H          1 MOL1         0.3726
       5    C1      20.099843   19.748763   22.451978 C.3        1 MOL1         0.0314
       6    H4      19.613093   19.297686   23.320892 H          1 MOL1         0.0999
       7    H5      21.116086   19.351985   22.383752 H          1 MOL1         0.0999
       8    C2      19.315173   19.390378   21.175338 C.3        1 MOL1        -0.1308
       9    H6      18.309605   19.827383   21.236479 H          1 MOL1         0.1025
      10    H7      19.803119   19.844827   20.302829 H          1 MOL1         0.1025
      11    C3      19.188331   17.863814   20.961983 C.3        1 MOL1        -0.1243
      12    H8      18.553263   17.677595   20.084491 H          1 MOL1         0.1025
      13    H9      18.670254   17.411809   21.819578 H          1 MOL1         0.1025
      14    C4      20.552720   17.167374   20.753725 C.3        1 MOL1        -0.2258
      15    H10     21.094271   17.605084   19.905045 H          1 MOL1         0.1036
      16    H11     20.411638   16.098847   20.545513 H          1 MOL1         0.1036
      17    H12     21.187790   17.249525   21.644808 H          1 MOL1         0.1036
@<TRIPOS>BOND
    1     1     2    1
    2     1     3    1
    3     1     4    1
    4     1     5    1
    5     5     6    1
    6     5     7    1
    7     5     8    1
    8     8     9    1
    9     8    10    1
   10     8    11    1
   11    11    12    1
   12    11    13    1
   13    11    14    1
   14    14    15    1
   15    14    16    1
   16    14    17    1
@<TRIPOS>SUBSTRUCTURE
       1 MOL1            1 RESIDUE      1      MOL     
@<SCITEGIC>MOL_PROPERTY
VConf Rank
SciTegic.value.IntegerValue
614

@<SCITEGIC>MOL_PROPERTY
Conf_Id
SciTegic.value.IntegerValue
36

@<SCITEGIC>MOL_PROPERTY
Delta U+W
SciTegic.value.DoubleValue
0.275

@<SCITEGIC>MOL_PROPERTY
U+W
SciTegic.value.DoubleValue
-15.590

@<SCITEGIC>MOL_PROPERTY
Grad RMS
SciTegic.value.DoubleValue
0.000000

@<SCITEGIC>MOL_PROPERTY
U
SciTegic.value.DoubleValue
45.174

@<SCITEGIC>MOL_PROPERTY
W
SciTegic.value.DoubleValue
-60.765

@<SCITEGIC>MOL_PROPERTY
W(PB)
SciTegic.value.DoubleValue
-62.518

@<SCITEGIC>MOL_PROPERTY
W(SA)
SciTegic.value.DoubleValue
1.754

@<SCITEGIC>MOL_PROPERTY
Valence
SciTegic.value.DoubleValue
1.161

@<SCITEGIC>MOL_PROPERTY
Coulomb
SciTegic.value.DoubleValue
43.789

@<SCITEGIC>MOL_PROPERTY
VdW
SciTegic.value.DoubleValue
0.224

@<SCITEGIC>MOL_PROPERTY
VdW6
SciTegic.value.DoubleValue
-2.897

@<SCITEGIC>MOL_PROPERTY
VdW12
SciTegic.value.DoubleValue
3.121

@<SCITEGIC>MOL_PROPERTY
Bond
SciTegic.value.DoubleValue
0.100

@<SCITEGIC>MOL_PROPERTY
Angle
SciTegic.value.DoubleValue
0.500

@<SCITEGIC>MOL_PROPERTY
Pdih
SciTegic.value.DoubleValue
0.561

@<SCITEGIC>MOL_PROPERTY
Idih
SciTegic.value.DoubleValue
0.000

@<SCITEGIC>MOL_PROPERTY
Tether
SciTegic.value.DoubleValue
0.000

@<TRIPOS>MOLECULE
guest-1_confgen4.mol2 : confsearch ligand conformer 615
          17          16           1
SMALL
USER_CHARGES
 
@<TRIPOS>ATOM
       1    N1      21.494431   18.882687   22.612900 N.4        1 MOL1        -0.5891
       2    H1      21.548424   18.283673   21.785185 H          1 MOL1         0.3726
       3    H2      21.274137   18.277076   23.409258 H          1 MOL1         0.3726
       4    H3      22.434099   19.258424   22.776207 H          1 MOL1         0.3726
       5    C1      20.467526   19.985651   22.442710 C.3        1 MOL1         0.0314
       6    H4      20.788801   20.637367   21.625794 H          1 MOL1         0.0999
       7    H5      20.472842   20.572641   23.365180 H          1 MOL1         0.0999
       8    C2      19.033520   19.481694   22.175751 C.3        1 MOL1        -0.1308
       9    H6      18.798174   18.645451   22.847345 H          1 MOL1         0.1025
      10    H7      18.339354   20.288801   22.445120 H          1 MOL1         0.1025
      11    C3      18.755191   19.085419   20.703269 C.3        1 MOL1        -0.1243
      12    H8      18.933743   19.949511   20.047916 H          1 MOL1         0.1025
      13    H9      17.687057   18.845595   20.605473 H          1 MOL1         0.1025
      14    C4      19.578706   17.878280   20.199759 C.3        1 MOL1        -0.2258
      15    H10     20.637448   18.135635   20.079304 H          1 MOL1         0.1036
      16    H11     19.212941   17.551189   19.217729 H          1 MOL1         0.1036
      17    H12     19.496803   17.025624   20.886361 H          1 MOL1         0.1036
@<TRIPOS>BOND
    1     1     2    1
    2     1     3    1
    3     1     4    1
    4     1     5    1
    5     5     6    1
    6     5     7    1
    7     5     8    1
    8     8     9    1
    9     8    10    1
   10     8    11    1
   11    11    12    1
   12    11    13    1
   13    11    14    1
   14    14    15    1
   15    14    16    1
   16    14    17    1
@<TRIPOS>SUBSTRUCTURE
       1 MOL1            1 RESIDUE      1      MOL     
@<SCITEGIC>MOL_PROPERTY
VConf Rank
SciTegic.value.IntegerValue
615

@<SCITEGIC>MOL_PROPERTY
Conf_Id
SciTegic.value.IntegerValue
19

@<SCITEGIC>MOL_PROPERTY
Delta U+W
SciTegic.value.DoubleValue
2.662

@<SCITEGIC>MOL_PROPERTY
U+W
SciTegic.value.DoubleValue
-13.203

@<SCITEGIC>MOL_PROPERTY
Grad RMS
SciTegic.value.DoubleValue
0.000000

@<SCITEGIC>MOL_PROPERTY
U
SciTegic.value.DoubleValue
47.423

@<SCITEGIC>MOL_PROPERTY
W
SciTegic.value.DoubleValue
-60.626

@<SCITEGIC>MOL_PROPERTY
W(PB)
SciTegic.value.DoubleValue
-62.328

@<SCITEGIC>MOL_PROPERTY
W(SA)
SciTegic.value.DoubleValue
1.702

@<SCITEGIC>MOL_PROPERTY
Valence
SciTegic.value.DoubleValue
2.414

@<SCITEGIC>MOL_PROPERTY
Coulomb
SciTegic.value.DoubleValue
44.831

@<SCITEGIC>MOL_PROPERTY
VdW
SciTegic.value.DoubleValue
0.178

@<SCITEGIC>MOL_PROPERTY
VdW6
SciTegic.value.DoubleValue
-3.743

@<SCITEGIC>MOL_PROPERTY
VdW12
SciTegic.value.DoubleValue
3.921

@<SCITEGIC>MOL_PROPERTY
Bond
SciTegic.value.DoubleValue
0.138

@<SCITEGIC>MOL_PROPERTY
Angle
SciTegic.value.DoubleValue
0.941

@<SCITEGIC>MOL_PROPERTY
Pdih
SciTegic.value.DoubleValue
1.335

@<SCITEGIC>MOL_PROPERTY
Idih
SciTegic.value.DoubleValue
0.000

@<SCITEGIC>MOL_PROPERTY
Tether
SciTegic.value.DoubleValue
0.000

@<TRIPOS>MOLECULE
guest-1_confgen4.mol2 : confsearch ligand conformer 616
          17          16           1
SMALL
USER_CHARGES
 
@<TRIPOS>ATOM
       1    N1      21.076085   18.779536   20.205327 N.4        1 MOL1        -0.5891
       2    H1      21.533308   19.177349   19.378576 H          1 MOL1         0.3726
       3    H2      21.266148   17.772939   20.194404 H          1 MOL1         0.3726
       4    H3      21.548115   19.166009   21.026710 H          1 MOL1         0.3726
       5    C1      19.588040   19.071878   20.222565 C.3        1 MOL1         0.0314
       6    H4      19.164060   18.626048   19.318677 H          1 MOL1         0.0999
       7    H5      19.445226   20.154241   20.164289 H          1 MOL1         0.0999
       8    C2      18.845865   18.512686   21.454674 C.3        1 MOL1        -0.1308
       9    H6      17.781149   18.434848   21.197444 H          1 MOL1         0.1025
      10    H7      19.181255   17.487870   21.662025 H          1 MOL1         0.1025
      11    C3      18.965568   19.387340   22.728783 C.3        1 MOL1        -0.1243
      12    H8      18.319553   18.956158   23.506431 H          1 MOL1         0.1025
      13    H9      18.568063   20.391815   22.526196 H          1 MOL1         0.1025
      14    C4      20.400618   19.505036   23.290618 C.3        1 MOL1        -0.2258
      15    H10     20.862238   18.516835   23.415187 H          1 MOL1         0.1036
      16    H11     20.385299   19.991683   24.274537 H          1 MOL1         0.1036
      17    H12     21.038621   20.114575   22.640161 H          1 MOL1         0.1036
@<TRIPOS>BOND
    1     1     2    1
    2     1     3    1
    3     1     4    1
    4     1     5    1
    5     5     6    1
    6     5     7    1
    7     5     8    1
    8     8     9    1
    9     8    10    1
   10     8    11    1
   11    11    12    1
   12    11    13    1
   13    11    14    1
   14    14    15    1
   15    14    16    1
   16    14    17    1
@<TRIPOS>SUBSTRUCTURE
       1 MOL1            1 RESIDUE      1      MOL     
@<SCITEGIC>MOL_PROPERTY
VConf Rank
SciTegic.value.IntegerValue
616

@<SCITEGIC>MOL_PROPERTY
Conf_Id
SciTegic.value.IntegerValue
44

@<SCITEGIC>MOL_PROPERTY
Delta U+W
SciTegic.value.DoubleValue
2.712

@<SCITEGIC>MOL_PROPERTY
U+W
SciTegic.value.DoubleValue
-13.153

@<SCITEGIC>MOL_PROPERTY
Grad RMS
SciTegic.value.DoubleValue
0.000000

@<SCITEGIC>MOL_PROPERTY
U
SciTegic.value.DoubleValue
47.423

@<SCITEGIC>MOL_PROPERTY
W
SciTegic.value.DoubleValue
-60.576

@<SCITEGIC>MOL_PROPERTY
W(PB)
SciTegic.value.DoubleValue
-62.262

@<SCITEGIC>MOL_PROPERTY
W(SA)
SciTegic.value.DoubleValue
1.687

@<SCITEGIC>MOL_PROPERTY
Valence
SciTegic.value.DoubleValue
2.414

@<SCITEGIC>MOL_PROPERTY
Coulomb
SciTegic.value.DoubleValue
44.831

@<SCITEGIC>MOL_PROPERTY
VdW
SciTegic.value.DoubleValue
0.178

@<SCITEGIC>MOL_PROPERTY
VdW6
SciTegic.value.DoubleValue
-3.743

@<SCITEGIC>MOL_PROPERTY
VdW12
SciTegic.value.DoubleValue
3.922

@<SCITEGIC>MOL_PROPERTY
Bond
SciTegic.value.DoubleValue
0.138

@<SCITEGIC>MOL_PROPERTY
Angle
SciTegic.value.DoubleValue
0.941

@<SCITEGIC>MOL_PROPERTY
Pdih
SciTegic.value.DoubleValue
1.335

@<SCITEGIC>MOL_PROPERTY
Idih
SciTegic.value.DoubleValue
0.000

@<SCITEGIC>MOL_PROPERTY
Tether
SciTegic.value.DoubleValue
0.000

@<TRIPOS>MOLECULE
guest-1_confgen4.mol2 : confsearch ligand conformer 617
          17          16           1
SMALL
USER_CHARGES
 
@<TRIPOS>ATOM
       1    N1      20.989203   19.685579   20.055928 N.4        1 MOL1        -0.5891
       2    H1      20.273467   19.055549   19.682790 H          1 MOL1         0.3726
       3    H2      21.887088   19.196897   19.989809 H          1 MOL1         0.3726
       4    H3      21.040390   20.489276   19.421799 H          1 MOL1         0.3726
       5    C1      20.678745   20.108668   21.478766 C.3        1 MOL1         0.0314
       6    H4      19.727514   20.647120   21.472923 H          1 MOL1         0.0999
       7    H5      21.459271   20.805192   21.796843 H          1 MOL1         0.0999
       8    C2      20.605405   18.933797   22.475872 C.3        1 MOL1        -0.1308
       9    H6      21.577719   18.424366   22.504734 H          1 MOL1         0.1025
      10    H7      20.442189   19.338117   23.483686 H          1 MOL1         0.1025
      11    C3      19.494465   17.903203   22.154556 C.3        1 MOL1        -0.1243
      12    H8      19.528279   17.101023   22.905069 H          1 MOL1         0.1025
      13    H9      19.694120   17.421933   21.187514 H          1 MOL1         0.1025
      14    C4      18.078169   18.522734   22.145219 C.3        1 MOL1        -0.2258
      15    H10     17.854202   19.009783   23.103181 H          1 MOL1         0.1036
      16    H11     17.319629   17.746897   21.978900 H          1 MOL1         0.1036
      17    H12     17.968786   19.268630   21.347960 H          1 MOL1         0.1036
@<TRIPOS>BOND
    1     1     2    1
    2     1     3    1
    3     1     4    1
    4     1     5    1
    5     5     6    1
    6     5     7    1
    7     5     8    1
    8     8     9    1
    9     8    10    1
   10     8    11    1
   11    11    12    1
   12    11    13    1
   13    11    14    1
   14    14    15    1
   15    14    16    1
   16    14    17    1
@<TRIPOS>SUBSTRUCTURE
       1 MOL1            1 RESIDUE      1      MOL     
@<SCITEGIC>MOL_PROPERTY
VConf Rank
SciTegic.value.IntegerValue
617

@<SCITEGIC>MOL_PROPERTY
Conf_Id
SciTegic.value.IntegerValue
1

@<SCITEGIC>MOL_PROPERTY
Delta U+W
SciTegic.value.DoubleValue
0.685

@<SCITEGIC>MOL_PROPERTY
U+W
SciTegic.value.DoubleValue
-15.179

@<SCITEGIC>MOL_PROPERTY
Grad RMS
SciTegic.value.DoubleValue
0.000000

@<SCITEGIC>MOL_PROPERTY
U
SciTegic.value.DoubleValue
45.697

@<SCITEGIC>MOL_PROPERTY
W
SciTegic.value.DoubleValue
-60.876

@<SCITEGIC>MOL_PROPERTY
W(PB)
SciTegic.value.DoubleValue
-62.586

@<SCITEGIC>MOL_PROPERTY
W(SA)
SciTegic.value.DoubleValue
1.710

@<SCITEGIC>MOL_PROPERTY
Valence
SciTegic.value.DoubleValue
1.263

@<SCITEGIC>MOL_PROPERTY
Coulomb
SciTegic.value.DoubleValue
44.179

@<SCITEGIC>MOL_PROPERTY
VdW
SciTegic.value.DoubleValue
0.255

@<SCITEGIC>MOL_PROPERTY
VdW6
SciTegic.value.DoubleValue
-3.552

@<SCITEGIC>MOL_PROPERTY
VdW12
SciTegic.value.DoubleValue
3.807

@<SCITEGIC>MOL_PROPERTY
Bond
SciTegic.value.DoubleValue
0.125

@<SCITEGIC>MOL_PROPERTY
Angle
SciTegic.value.DoubleValue
0.616

@<SCITEGIC>MOL_PROPERTY
Pdih
SciTegic.value.DoubleValue
0.521

@<SCITEGIC>MOL_PROPERTY
Idih
SciTegic.value.DoubleValue
0.000

@<SCITEGIC>MOL_PROPERTY
Tether
SciTegic.value.DoubleValue
0.000

@<TRIPOS>MOLECULE
guest-1_confgen4.mol2 : confsearch ligand conformer 618
          17          16           1
SMALL
USER_CHARGES
 
@<TRIPOS>ATOM
       1    N1      19.195096   20.868558   21.775325 N.4        1 MOL1        -0.5891
       2    H1      18.179492   20.883983   21.642331 H          1 MOL1         0.3726
       3    H2      19.621024   20.801532   20.846594 H          1 MOL1         0.3726
       4    H3      19.458736   21.781242   22.160251 H          1 MOL1         0.3726
       5    C1      19.630454   19.729256   22.676610 C.3        1 MOL1         0.0314
       6    H4      19.170429   19.885195   23.656200 H          1 MOL1         0.0999
       7    H5      20.714961   19.788972   22.799431 H          1 MOL1         0.0999
       8    C2      19.242970   18.333150   22.146833 C.3        1 MOL1        -0.1308
       9    H6      19.538827   17.580896   22.890060 H          1 MOL1         0.1025
      10    H7      18.149782   18.269121   22.065672 H          1 MOL1         0.1025
      11    C3      19.881493   17.978096   20.780896 C.3        1 MOL1        -0.1243
      12    H8      19.522239   18.668147   20.005383 H          1 MOL1         0.1025
      13    H9      19.538799   16.978318   20.479384 H          1 MOL1         0.1025
      14    C4      21.426997   17.990524   20.813452 C.3        1 MOL1        -0.2258
      15    H10     21.835076   17.670456   19.845983 H          1 MOL1         0.1036
      16    H11     21.811016   17.306511   21.581386 H          1 MOL1         0.1036
      17    H12     21.818594   18.994083   21.021949 H          1 MOL1         0.1036
@<TRIPOS>BOND
    1     1     2    1
    2     1     3    1
    3     1     4    1
    4     1     5    1
    5     5     6    1
    6     5     7    1
    7     5     8    1
    8     8     9    1
    9     8    10    1
   10     8    11    1
   11    11    12    1
   12    11    13    1
   13    11    14    1
   14    14    15    1
   15    14    16    1
   16    14    17    1
@<TRIPOS>SUBSTRUCTURE
       1 MOL1            1 RESIDUE      1      MOL     
@<SCITEGIC>MOL_PROPERTY
VConf Rank
SciTegic.value.IntegerValue
618

@<SCITEGIC>MOL_PROPERTY
Conf_Id
SciTegic.value.IntegerValue
43

@<SCITEGIC>MOL_PROPERTY
Delta U+W
SciTegic.value.DoubleValue
0.642

@<SCITEGIC>MOL_PROPERTY
U+W
SciTegic.value.DoubleValue
-15.222

@<SCITEGIC>MOL_PROPERTY
Grad RMS
SciTegic.value.DoubleValue
0.000000

@<SCITEGIC>MOL_PROPERTY
U
SciTegic.value.DoubleValue
45.697

@<SCITEGIC>MOL_PROPERTY
W
SciTegic.value.DoubleValue
-60.919

@<SCITEGIC>MOL_PROPERTY
W(PB)
SciTegic.value.DoubleValue
-62.631

@<SCITEGIC>MOL_PROPERTY
W(SA)
SciTegic.value.DoubleValue
1.712

@<SCITEGIC>MOL_PROPERTY
Valence
SciTegic.value.DoubleValue
1.262

@<SCITEGIC>MOL_PROPERTY
Coulomb
SciTegic.value.DoubleValue
44.179

@<SCITEGIC>MOL_PROPERTY
VdW
SciTegic.value.DoubleValue
0.255

@<SCITEGIC>MOL_PROPERTY
VdW6
SciTegic.value.DoubleValue
-3.552

@<SCITEGIC>MOL_PROPERTY
VdW12
SciTegic.value.DoubleValue
3.807

@<SCITEGIC>MOL_PROPERTY
Bond
SciTegic.value.DoubleValue
0.125

@<SCITEGIC>MOL_PROPERTY
Angle
SciTegic.value.DoubleValue
0.616

@<SCITEGIC>MOL_PROPERTY
Pdih
SciTegic.value.DoubleValue
0.521

@<SCITEGIC>MOL_PROPERTY
Idih
SciTegic.value.DoubleValue
0.000

@<SCITEGIC>MOL_PROPERTY
Tether
SciTegic.value.DoubleValue
0.000

@<TRIPOS>MOLECULE
guest-1_confgen4.mol2 : confsearch ligand conformer 619
          17          16           1
SMALL
USER_CHARGES
 
@<TRIPOS>ATOM
       1    N1      21.061762   21.038518   22.808950 N.4        1 MOL1        -0.5891
       2    H1      21.982788   20.611519   22.947080 H          1 MOL1         0.3726
       3    H2      20.554835   20.953308   23.695213 H          1 MOL1         0.3726
       4    H3      21.219634   22.039355   22.653036 H          1 MOL1         0.3726
       5    C1      20.306947   20.401264   21.659377 C.3        1 MOL1         0.0314
       6    H4      20.888316   20.556568   20.746461 H          1 MOL1         0.0999
       7    H5      19.352816   20.924134   21.550915 H          1 MOL1         0.0999
       8    C2      20.052274   18.896340   21.860893 C.3        1 MOL1        -0.1308
       9    H6      21.011823   18.376840   21.984891 H          1 MOL1         0.1025
      10    H7      19.481486   18.743152   22.786487 H          1 MOL1         0.1025
      11    C3      19.282026   18.287112   20.668802 C.3        1 MOL1        -0.1243
      12    H8      19.851328   18.443069   19.741495 H          1 MOL1         0.1025
      13    H9      18.322834   18.808875   20.542152 H          1 MOL1         0.1025
      14    C4      19.022943   16.777550   20.863878 C.3        1 MOL1        -0.2258
      15    H10     18.475226   16.364128   20.007061 H          1 MOL1         0.1036
      16    H11     18.425401   16.592296   21.766005 H          1 MOL1         0.1036
      17    H12     19.965970   16.223616   20.959088 H          1 MOL1         0.1036
@<TRIPOS>BOND
    1     1     2    1
    2     1     3    1
    3     1     4    1
    4     1     5    1
    5     5     6    1
    6     5     7    1
    7     5     8    1
    8     8     9    1
    9     8    10    1
   10     8    11    1
   11    11    12    1
   12    11    13    1
   13    11    14    1
   14    14    15    1
   15    14    16    1
   16    14    17    1
@<TRIPOS>SUBSTRUCTURE
       1 MOL1            1 RESIDUE      1      MOL     
@<SCITEGIC>MOL_PROPERTY
VConf Rank
SciTegic.value.IntegerValue
619

@<SCITEGIC>MOL_PROPERTY
Conf_Id
SciTegic.value.IntegerValue
7

@<SCITEGIC>MOL_PROPERTY
Delta U+W
SciTegic.value.DoubleValue
0.000

@<SCITEGIC>MOL_PROPERTY
U+W
SciTegic.value.DoubleValue
-15.865

@<SCITEGIC>MOL_PROPERTY
Grad RMS
SciTegic.value.DoubleValue
0.000000

@<SCITEGIC>MOL_PROPERTY
U
SciTegic.value.DoubleValue
44.664

@<SCITEGIC>MOL_PROPERTY
W
SciTegic.value.DoubleValue
-60.529

@<SCITEGIC>MOL_PROPERTY
W(PB)
SciTegic.value.DoubleValue
-62.309

@<SCITEGIC>MOL_PROPERTY
W(SA)
SciTegic.value.DoubleValue
1.780

@<SCITEGIC>MOL_PROPERTY
Valence
SciTegic.value.DoubleValue
0.872

@<SCITEGIC>MOL_PROPERTY
Coulomb
SciTegic.value.DoubleValue
43.648

@<SCITEGIC>MOL_PROPERTY
VdW
SciTegic.value.DoubleValue
0.144

@<SCITEGIC>MOL_PROPERTY
VdW6
SciTegic.value.DoubleValue
-2.370

@<SCITEGIC>MOL_PROPERTY
VdW12
SciTegic.value.DoubleValue
2.515

@<SCITEGIC>MOL_PROPERTY
Bond
SciTegic.value.DoubleValue
0.080

@<SCITEGIC>MOL_PROPERTY
Angle
SciTegic.value.DoubleValue
0.376

@<SCITEGIC>MOL_PROPERTY
Pdih
SciTegic.value.DoubleValue
0.416

@<SCITEGIC>MOL_PROPERTY
Idih
SciTegic.value.DoubleValue
0.000

@<SCITEGIC>MOL_PROPERTY
Tether
SciTegic.value.DoubleValue
0.000

@<TRIPOS>MOLECULE
guest-1_confgen4.mol2 : confsearch ligand conformer 620
          17          16           1
SMALL
USER_CHARGES
 
@<TRIPOS>ATOM
       1    N1      19.607056   16.734256   22.002341 N.4        1 MOL1        -0.5891
       2    H1      19.952187   16.219620   21.186447 H          1 MOL1         0.3726
       3    H2      18.583727   16.722808   21.954253 H          1 MOL1         0.3726
       4    H3      19.871024   16.189455   22.829599 H          1 MOL1         0.3726
       5    C1      20.156961   18.145599   22.057766 C.3        1 MOL1         0.0314
       6    H4      21.245458   18.081262   22.138044 H          1 MOL1         0.0999
       7    H5      19.773624   18.619996   22.964870 H          1 MOL1         0.0999
       8    C2      19.778045   18.993129   20.828102 C.3        1 MOL1        -0.1308
       9    H6      20.132547   18.487919   19.919824 H          1 MOL1         0.1025
      10    H7      18.684775   19.056340   20.746532 H          1 MOL1         0.1025
      11    C3      20.377599   20.417927   20.878012 C.3        1 MOL1        -0.1243
      12    H8      20.138232   20.938955   19.940348 H          1 MOL1         0.1025
      13    H9      21.474021   20.356861   20.926091 H          1 MOL1         0.1025
      14    C4      19.851501   21.253545   22.067517 C.3        1 MOL1        -0.2258
      15    H10     18.756256   21.325066   22.046350 H          1 MOL1         0.1036
      16    H11     20.254331   22.273966   22.029082 H          1 MOL1         0.1036
      17    H12     20.148038   20.817070   23.029622 H          1 MOL1         0.1036
@<TRIPOS>BOND
    1     1     2    1
    2     1     3    1
    3     1     4    1
    4     1     5    1
    5     5     6    1
    6     5     7    1
    7     5     8    1
    8     8     9    1
    9     8    10    1
   10     8    11    1
   11    11    12    1
   12    11    13    1
   13    11    14    1
   14    14    15    1
   15    14    16    1
   16    14    17    1
@<TRIPOS>SUBSTRUCTURE
       1 MOL1            1 RESIDUE      1      MOL     
@<SCITEGIC>MOL_PROPERTY
VConf Rank
SciTegic.value.IntegerValue
620

@<SCITEGIC>MOL_PROPERTY
Conf_Id
SciTegic.value.IntegerValue
36

@<SCITEGIC>MOL_PROPERTY
Delta U+W
SciTegic.value.DoubleValue
0.275

@<SCITEGIC>MOL_PROPERTY
U+W
SciTegic.value.DoubleValue
-15.590

@<SCITEGIC>MOL_PROPERTY
Grad RMS
SciTegic.value.DoubleValue
0.000000

@<SCITEGIC>MOL_PROPERTY
U
SciTegic.value.DoubleValue
45.174

@<SCITEGIC>MOL_PROPERTY
W
SciTegic.value.DoubleValue
-60.765

@<SCITEGIC>MOL_PROPERTY
W(PB)
SciTegic.value.DoubleValue
-62.518

@<SCITEGIC>MOL_PROPERTY
W(SA)
SciTegic.value.DoubleValue
1.754

@<SCITEGIC>MOL_PROPERTY
Valence
SciTegic.value.DoubleValue
1.161

@<SCITEGIC>MOL_PROPERTY
Coulomb
SciTegic.value.DoubleValue
43.789

@<SCITEGIC>MOL_PROPERTY
VdW
SciTegic.value.DoubleValue
0.224

@<SCITEGIC>MOL_PROPERTY
VdW6
SciTegic.value.DoubleValue
-2.897

@<SCITEGIC>MOL_PROPERTY
VdW12
SciTegic.value.DoubleValue
3.121

@<SCITEGIC>MOL_PROPERTY
Bond
SciTegic.value.DoubleValue
0.100

@<SCITEGIC>MOL_PROPERTY
Angle
SciTegic.value.DoubleValue
0.500

@<SCITEGIC>MOL_PROPERTY
Pdih
SciTegic.value.DoubleValue
0.561

@<SCITEGIC>MOL_PROPERTY
Idih
SciTegic.value.DoubleValue
0.000

@<SCITEGIC>MOL_PROPERTY
Tether
SciTegic.value.DoubleValue
0.000

@<TRIPOS>MOLECULE
guest-1_confgen4.mol2 : confsearch ligand conformer 621
          17          16           1
SMALL
USER_CHARGES
 
@<TRIPOS>ATOM
       1    N1      20.282316   18.660473   23.398697 N.4        1 MOL1        -0.5891
       2    H1      19.496588   18.097909   23.062544 H          1 MOL1         0.3726
       3    H2      19.886912   19.454342   23.911441 H          1 MOL1         0.3726
       4    H3      20.792524   18.090364   24.080963 H          1 MOL1         0.3726
       5    C1      21.176755   19.113684   22.260888 C.3        1 MOL1         0.0314
       6    H4      21.622431   18.230483   21.795452 H          1 MOL1         0.0999
       7    H5      21.982705   19.705133   22.703800 H          1 MOL1         0.0999
       8    C2      20.459986   19.962895   21.190049 C.3        1 MOL1        -0.1308
       9    H6      19.809069   20.704156   21.672302 H          1 MOL1         0.1025
      10    H7      21.224838   20.538505   20.651978 H          1 MOL1         0.1025
      11    C3      19.660621   19.140914   20.146944 C.3        1 MOL1        -0.1243
      12    H8      20.336009   18.447012   19.626969 H          1 MOL1         0.1025
      13    H9      19.283200   19.830370   19.378705 H          1 MOL1         0.1025
      14    C4      18.465655   18.354777   20.732544 C.3        1 MOL1        -0.2258
      15    H10     18.801285   17.512796   21.349062 H          1 MOL1         0.1036
      16    H11     17.851817   17.937313   19.923790 H          1 MOL1         0.1036
      17    H12     17.820487   19.003592   21.339134 H          1 MOL1         0.1036
@<TRIPOS>BOND
    1     1     2    1
    2     1     3    1
    3     1     4    1
    4     1     5    1
    5     5     6    1
    6     5     7    1
    7     5     8    1
    8     8     9    1
    9     8    10    1
   10     8    11    1
   11    11    12    1
   12    11    13    1
   13    11    14    1
   14    14    15    1
   15    14    16    1
   16    14    17    1
@<TRIPOS>SUBSTRUCTURE
       1 MOL1            1 RESIDUE      1      MOL     
@<SCITEGIC>MOL_PROPERTY
VConf Rank
SciTegic.value.IntegerValue
621

@<SCITEGIC>MOL_PROPERTY
Conf_Id
SciTegic.value.IntegerValue
19

@<SCITEGIC>MOL_PROPERTY
Delta U+W
SciTegic.value.DoubleValue
2.662

@<SCITEGIC>MOL_PROPERTY
U+W
SciTegic.value.DoubleValue
-13.203

@<SCITEGIC>MOL_PROPERTY
Grad RMS
SciTegic.value.DoubleValue
0.000000

@<SCITEGIC>MOL_PROPERTY
U
SciTegic.value.DoubleValue
47.423

@<SCITEGIC>MOL_PROPERTY
W
SciTegic.value.DoubleValue
-60.626

@<SCITEGIC>MOL_PROPERTY
W(PB)
SciTegic.value.DoubleValue
-62.328

@<SCITEGIC>MOL_PROPERTY
W(SA)
SciTegic.value.DoubleValue
1.702

@<SCITEGIC>MOL_PROPERTY
Valence
SciTegic.value.DoubleValue
2.414

@<SCITEGIC>MOL_PROPERTY
Coulomb
SciTegic.value.DoubleValue
44.831

@<SCITEGIC>MOL_PROPERTY
VdW
SciTegic.value.DoubleValue
0.178

@<SCITEGIC>MOL_PROPERTY
VdW6
SciTegic.value.DoubleValue
-3.743

@<SCITEGIC>MOL_PROPERTY
VdW12
SciTegic.value.DoubleValue
3.921

@<SCITEGIC>MOL_PROPERTY
Bond
SciTegic.value.DoubleValue
0.138

@<SCITEGIC>MOL_PROPERTY
Angle
SciTegic.value.DoubleValue
0.941

@<SCITEGIC>MOL_PROPERTY
Pdih
SciTegic.value.DoubleValue
1.335

@<SCITEGIC>MOL_PROPERTY
Idih
SciTegic.value.DoubleValue
0.000

@<SCITEGIC>MOL_PROPERTY
Tether
SciTegic.value.DoubleValue
0.000

@<TRIPOS>MOLECULE
guest-1_confgen4.mol2 : confsearch ligand conformer 622
          17          16           1
SMALL
USER_CHARGES
 
@<TRIPOS>ATOM
       1    N1      18.551754   20.360470   21.552692 N.4        1 MOL1        -0.5891
       2    H1      18.071468   21.110208   22.060670 H          1 MOL1         0.3726
       3    H2      17.996062   20.166444   20.714217 H          1 MOL1         0.3726
       4    H3      19.449957   20.736151   21.238148 H          1 MOL1         0.3726
       5    C1      18.729464   19.122108   22.409966 C.3        1 MOL1         0.0314
       6    H4      17.729601   18.787228   22.699218 H          1 MOL1         0.0999
       7    H5      19.267960   19.402501   23.319199 H          1 MOL1         0.0999
       8    C2      19.463686   17.962299   21.704721 C.3        1 MOL1        -0.1308
       9    H6      19.208707   17.034027   22.233062 H          1 MOL1         0.1025
      10    H7      19.081039   17.841841   20.682566 H          1 MOL1         0.1025
      11    C3      21.008117   18.093557   21.690284 C.3        1 MOL1        -0.1243
      12    H8      21.429644   17.172881   21.262897 H          1 MOL1         0.1025
      13    H9      21.383928   18.149488   22.721622 H          1 MOL1         0.1025
      14    C4      21.539464   19.299348   20.882436 C.3        1 MOL1        -0.2258
      15    H10     21.106728   19.325296   19.873864 H          1 MOL1         0.1036
      16    H11     22.630082   19.234590   20.775138 H          1 MOL1         0.1036
      17    H12     21.321551   20.248409   21.385903 H          1 MOL1         0.1036
@<TRIPOS>BOND
    1     1     2    1
    2     1     3    1
    3     1     4    1
    4     1     5    1
    5     5     6    1
    6     5     7    1
    7     5     8    1
    8     8     9    1
    9     8    10    1
   10     8    11    1
   11    11    12    1
   12    11    13    1
   13    11    14    1
   14    14    15    1
   15    14    16    1
   16    14    17    1
@<TRIPOS>SUBSTRUCTURE
       1 MOL1            1 RESIDUE      1      MOL     
@<SCITEGIC>MOL_PROPERTY
VConf Rank
SciTegic.value.IntegerValue
622

@<SCITEGIC>MOL_PROPERTY
Conf_Id
SciTegic.value.IntegerValue
44

@<SCITEGIC>MOL_PROPERTY
Delta U+W
SciTegic.value.DoubleValue
2.712

@<SCITEGIC>MOL_PROPERTY
U+W
SciTegic.value.DoubleValue
-13.153

@<SCITEGIC>MOL_PROPERTY
Grad RMS
SciTegic.value.DoubleValue
0.000000

@<SCITEGIC>MOL_PROPERTY
U
SciTegic.value.DoubleValue
47.423

@<SCITEGIC>MOL_PROPERTY
W
SciTegic.value.DoubleValue
-60.576

@<SCITEGIC>MOL_PROPERTY
W(PB)
SciTegic.value.DoubleValue
-62.262

@<SCITEGIC>MOL_PROPERTY
W(SA)
SciTegic.value.DoubleValue
1.687

@<SCITEGIC>MOL_PROPERTY
Valence
SciTegic.value.DoubleValue
2.414

@<SCITEGIC>MOL_PROPERTY
Coulomb
SciTegic.value.DoubleValue
44.831

@<SCITEGIC>MOL_PROPERTY
VdW
SciTegic.value.DoubleValue
0.178

@<SCITEGIC>MOL_PROPERTY
VdW6
SciTegic.value.DoubleValue
-3.743

@<SCITEGIC>MOL_PROPERTY
VdW12
SciTegic.value.DoubleValue
3.922

@<SCITEGIC>MOL_PROPERTY
Bond
SciTegic.value.DoubleValue
0.138

@<SCITEGIC>MOL_PROPERTY
Angle
SciTegic.value.DoubleValue
0.941

@<SCITEGIC>MOL_PROPERTY
Pdih
SciTegic.value.DoubleValue
1.335

@<SCITEGIC>MOL_PROPERTY
Idih
SciTegic.value.DoubleValue
0.000

@<SCITEGIC>MOL_PROPERTY
Tether
SciTegic.value.DoubleValue
0.000

@<TRIPOS>MOLECULE
guest-1_confgen4.mol2 : confsearch ligand conformer 623
          17          16           1
SMALL
USER_CHARGES
 
@<TRIPOS>ATOM
       1    N1      21.702202   18.559773   20.867261 N.4        1 MOL1        -0.5891
       2    H1      21.027550   18.463684   20.103024 H          1 MOL1         0.3726
       3    H2      21.981339   17.614230   21.145486 H          1 MOL1         0.3726
       4    H3      22.534450   19.012900   20.476483 H          1 MOL1         0.3726
       5    C1      21.126068   19.344763   22.029895 C.3        1 MOL1         0.0314
       6    H4      20.878250   20.347676   21.672745 H          1 MOL1         0.0999
       7    H5      21.908466   19.439778   22.787763 H          1 MOL1         0.0999
       8    C2      19.878287   18.694777   22.662731 C.3        1 MOL1        -0.1308
       9    H6      20.147112   17.704872   23.054611 H          1 MOL1         0.1025
      10    H7      19.571908   19.294058   23.530371 H          1 MOL1         0.1025
      11    C3      18.679634   18.554981   21.691524 C.3        1 MOL1        -0.1243
      12    H8      17.847990   18.071710   22.223240 H          1 MOL1         0.1025
      13    H9      18.941198   17.882530   20.863244 H          1 MOL1         0.1025
      14    C4      18.195327   19.910744   21.128361 C.3        1 MOL1        -0.2258
      15    H10     17.926453   20.601108   21.938405 H          1 MOL1         0.1036
      16    H11     17.306806   19.770987   20.499102 H          1 MOL1         0.1036
      17    H12     18.965601   20.390190   20.511305 H          1 MOL1         0.1036
@<TRIPOS>BOND
    1     1     2    1
    2     1     3    1
    3     1     4    1
    4     1     5    1
    5     5     6    1
    6     5     7    1
    7     5     8    1
    8     8     9    1
    9     8    10    1
   10     8    11    1
   11    11    12    1
   12    11    13    1
   13    11    14    1
   14    14    15    1
   15    14    16    1
   16    14    17    1
@<TRIPOS>SUBSTRUCTURE
       1 MOL1            1 RESIDUE      1      MOL     
@<SCITEGIC>MOL_PROPERTY
VConf Rank
SciTegic.value.IntegerValue
623

@<SCITEGIC>MOL_PROPERTY
Conf_Id
SciTegic.value.IntegerValue
1

@<SCITEGIC>MOL_PROPERTY
Delta U+W
SciTegic.value.DoubleValue
0.685

@<SCITEGIC>MOL_PROPERTY
U+W
SciTegic.value.DoubleValue
-15.179

@<SCITEGIC>MOL_PROPERTY
Grad RMS
SciTegic.value.DoubleValue
0.000000

@<SCITEGIC>MOL_PROPERTY
U
SciTegic.value.DoubleValue
45.697

@<SCITEGIC>MOL_PROPERTY
W
SciTegic.value.DoubleValue
-60.876

@<SCITEGIC>MOL_PROPERTY
W(PB)
SciTegic.value.DoubleValue
-62.586

@<SCITEGIC>MOL_PROPERTY
W(SA)
SciTegic.value.DoubleValue
1.710

@<SCITEGIC>MOL_PROPERTY
Valence
SciTegic.value.DoubleValue
1.263

@<SCITEGIC>MOL_PROPERTY
Coulomb
SciTegic.value.DoubleValue
44.179

@<SCITEGIC>MOL_PROPERTY
VdW
SciTegic.value.DoubleValue
0.255

@<SCITEGIC>MOL_PROPERTY
VdW6
SciTegic.value.DoubleValue
-3.552

@<SCITEGIC>MOL_PROPERTY
VdW12
SciTegic.value.DoubleValue
3.807

@<SCITEGIC>MOL_PROPERTY
Bond
SciTegic.value.DoubleValue
0.125

@<SCITEGIC>MOL_PROPERTY
Angle
SciTegic.value.DoubleValue
0.616

@<SCITEGIC>MOL_PROPERTY
Pdih
SciTegic.value.DoubleValue
0.521

@<SCITEGIC>MOL_PROPERTY
Idih
SciTegic.value.DoubleValue
0.000

@<SCITEGIC>MOL_PROPERTY
Tether
SciTegic.value.DoubleValue
0.000

@<TRIPOS>MOLECULE
guest-1_confgen4.mol2 : confsearch ligand conformer 624
          17          16           1
SMALL
USER_CHARGES
 
@<TRIPOS>ATOM
       1    N1      18.480482   18.090849   20.611794 N.4        1 MOL1        -0.5891
       2    H1      17.606768   18.077876   21.146427 H          1 MOL1         0.3726
       3    H2      19.089851   17.370834   21.010161 H          1 MOL1         0.3726
       4    H3      18.250268   17.793882   19.658127 H          1 MOL1         0.3726
       5    C1      19.137062   19.457697   20.633871 C.3        1 MOL1         0.0314
       6    H4      18.449524   20.165011   20.162134 H          1 MOL1         0.0999
       7    H5      20.042761   19.409130   20.023826 H          1 MOL1         0.0999
       8    C2      19.490099   19.956172   22.050490 C.3        1 MOL1        -0.1308
       9    H6      19.898257   20.972683   21.973576 H          1 MOL1         0.1025
      10    H7      18.569299   20.040580   22.642733 H          1 MOL1         0.1025
      11    C3      20.503175   19.056051   22.800835 C.3        1 MOL1        -0.1243
      12    H8      20.071932   18.059550   22.967177 H          1 MOL1         0.1025
      13    H9      20.681179   19.479793   23.799164 H          1 MOL1         0.1025
      14    C4      21.855479   18.921731   22.063928 C.3        1 MOL1        -0.2258
      15    H10     22.562409   18.331328   22.661123 H          1 MOL1         0.1036
      16    H11     22.307766   19.906156   21.886700 H          1 MOL1         0.1036
      17    H12     21.739675   18.418716   21.095675 H          1 MOL1         0.1036
@<TRIPOS>BOND
    1     1     2    1
    2     1     3    1
    3     1     4    1
    4     1     5    1
    5     5     6    1
    6     5     7    1
    7     5     8    1
    8     8     9    1
    9     8    10    1
   10     8    11    1
   11    11    12    1
   12    11    13    1
   13    11    14    1
   14    14    15    1
   15    14    16    1
   16    14    17    1
@<TRIPOS>SUBSTRUCTURE
       1 MOL1            1 RESIDUE      1      MOL     
@<SCITEGIC>MOL_PROPERTY
VConf Rank
SciTegic.value.IntegerValue
624

@<SCITEGIC>MOL_PROPERTY
Conf_Id
SciTegic.value.IntegerValue
43

@<SCITEGIC>MOL_PROPERTY
Delta U+W
SciTegic.value.DoubleValue
0.642

@<SCITEGIC>MOL_PROPERTY
U+W
SciTegic.value.DoubleValue
-15.222

@<SCITEGIC>MOL_PROPERTY
Grad RMS
SciTegic.value.DoubleValue
0.000000

@<SCITEGIC>MOL_PROPERTY
U
SciTegic.value.DoubleValue
45.697

@<SCITEGIC>MOL_PROPERTY
W
SciTegic.value.DoubleValue
-60.919

@<SCITEGIC>MOL_PROPERTY
W(PB)
SciTegic.value.DoubleValue
-62.631

@<SCITEGIC>MOL_PROPERTY
W(SA)
SciTegic.value.DoubleValue
1.712

@<SCITEGIC>MOL_PROPERTY
Valence
SciTegic.value.DoubleValue
1.262

@<SCITEGIC>MOL_PROPERTY
Coulomb
SciTegic.value.DoubleValue
44.179

@<SCITEGIC>MOL_PROPERTY
VdW
SciTegic.value.DoubleValue
0.255

@<SCITEGIC>MOL_PROPERTY
VdW6
SciTegic.value.DoubleValue
-3.552

@<SCITEGIC>MOL_PROPERTY
VdW12
SciTegic.value.DoubleValue
3.807

@<SCITEGIC>MOL_PROPERTY
Bond
SciTegic.value.DoubleValue
0.125

@<SCITEGIC>MOL_PROPERTY
Angle
SciTegic.value.DoubleValue
0.616

@<SCITEGIC>MOL_PROPERTY
Pdih
SciTegic.value.DoubleValue
0.521

@<SCITEGIC>MOL_PROPERTY
Idih
SciTegic.value.DoubleValue
0.000

@<SCITEGIC>MOL_PROPERTY
Tether
SciTegic.value.DoubleValue
0.000

@<TRIPOS>MOLECULE
guest-1_confgen4.mol2 : confsearch ligand conformer 625
          17          16           1
SMALL
USER_CHARGES
 
@<TRIPOS>ATOM
       1    N1      21.086189   17.192667   20.253147 N.4        1 MOL1        -0.5891
       2    H1      22.011271   17.626100   20.175325 H          1 MOL1         0.3726
       3    H2      20.601117   17.357860   19.365953 H          1 MOL1         0.3726
       4    H3      21.237940   16.181298   20.323943 H          1 MOL1         0.3726
       5    C1      20.305158   17.729501   21.436006 C.3        1 MOL1         0.0314
       6    H4      20.863843   17.491810   22.345345 H          1 MOL1         0.0999
       7    H5      19.347481   17.203330   21.475036 H          1 MOL1         0.0999
       8    C2      20.058894   19.247437   21.361925 C.3        1 MOL1        -0.1308
       9    H6      21.022356   19.771596   21.307256 H          1 MOL1         0.1025
      10    H7      19.511089   19.484089   20.440028 H          1 MOL1         0.1025
      11    C3      19.261338   19.752677   22.584283 C.3        1 MOL1        -0.1243
      12    H8      19.807610   19.513121   23.507607 H          1 MOL1         0.1025
      13    H9      18.298164   19.226029   22.641401 H          1 MOL1         0.1025
      14    C4      19.010520   21.274685   22.516918 C.3        1 MOL1        -0.2258
      15    H10     18.443118   21.613435   23.393475 H          1 MOL1         0.1036
      16    H11     18.435474   21.541330   21.620577 H          1 MOL1         0.1036
      17    H12     19.956845   21.830681   22.493558 H          1 MOL1         0.1036
@<TRIPOS>BOND
    1     1     2    1
    2     1     3    1
    3     1     4    1
    4     1     5    1
    5     5     6    1
    6     5     7    1
    7     5     8    1
    8     8     9    1
    9     8    10    1
   10     8    11    1
   11    11    12    1
   12    11    13    1
   13    11    14    1
   14    14    15    1
   15    14    16    1
   16    14    17    1
@<TRIPOS>SUBSTRUCTURE
       1 MOL1            1 RESIDUE      1      MOL     
@<SCITEGIC>MOL_PROPERTY
VConf Rank
SciTegic.value.IntegerValue
625

@<SCITEGIC>MOL_PROPERTY
Conf_Id
SciTegic.value.IntegerValue
7

@<SCITEGIC>MOL_PROPERTY
Delta U+W
SciTegic.value.DoubleValue
0.000

@<SCITEGIC>MOL_PROPERTY
U+W
SciTegic.value.DoubleValue
-15.865

@<SCITEGIC>MOL_PROPERTY
Grad RMS
SciTegic.value.DoubleValue
0.000000

@<SCITEGIC>MOL_PROPERTY
U
SciTegic.value.DoubleValue
44.664

@<SCITEGIC>MOL_PROPERTY
W
SciTegic.value.DoubleValue
-60.529

@<SCITEGIC>MOL_PROPERTY
W(PB)
SciTegic.value.DoubleValue
-62.309

@<SCITEGIC>MOL_PROPERTY
W(SA)
SciTegic.value.DoubleValue
1.780

@<SCITEGIC>MOL_PROPERTY
Valence
SciTegic.value.DoubleValue
0.872

@<SCITEGIC>MOL_PROPERTY
Coulomb
SciTegic.value.DoubleValue
43.648

@<SCITEGIC>MOL_PROPERTY
VdW
SciTegic.value.DoubleValue
0.144

@<SCITEGIC>MOL_PROPERTY
VdW6
SciTegic.value.DoubleValue
-2.370

@<SCITEGIC>MOL_PROPERTY
VdW12
SciTegic.value.DoubleValue
2.515

@<SCITEGIC>MOL_PROPERTY
Bond
SciTegic.value.DoubleValue
0.080

@<SCITEGIC>MOL_PROPERTY
Angle
SciTegic.value.DoubleValue
0.376

@<SCITEGIC>MOL_PROPERTY
Pdih
SciTegic.value.DoubleValue
0.416

@<SCITEGIC>MOL_PROPERTY
Idih
SciTegic.value.DoubleValue
0.000

@<SCITEGIC>MOL_PROPERTY
Tether
SciTegic.value.DoubleValue
0.000

@<TRIPOS>MOLECULE
guest-1_confgen4.mol2 : confsearch ligand conformer 626
          17          16           1
SMALL
USER_CHARGES
 
@<TRIPOS>ATOM
       1    N1      19.594914   17.096066   22.930316 N.4        1 MOL1        -0.5891
       2    H1      18.649269   16.742810   22.755350 H          1 MOL1         0.3726
       3    H2      19.585403   17.535116   23.855946 H          1 MOL1         0.3726
       4    H3      20.209158   16.278044   22.996569 H          1 MOL1         0.3726
       5    C1      20.050754   18.057367   21.850748 C.3        1 MOL1         0.0314
       6    H4      20.065621   17.516311   20.900777 H          1 MOL1         0.0999
       7    H5      21.072701   18.366058   22.085635 H          1 MOL1         0.0999
       8    C2      19.148543   19.299949   21.724399 C.3        1 MOL1        -0.1308
       9    H6      18.117333   18.977413   21.528305 H          1 MOL1         0.1025
      10    H7      19.132292   19.842440   22.679034 H          1 MOL1         0.1025
      11    C3      19.601246   20.253278   20.593811 C.3        1 MOL1        -0.1243
      12    H8      18.873689   21.072251   20.504776 H          1 MOL1         0.1025
      13    H9      19.586104   19.720936   19.632268 H          1 MOL1         0.1025
      14    C4      21.006464   20.851253   20.834113 C.3        1 MOL1        -0.2258
      15    H10     21.050348   21.384313   21.792782 H          1 MOL1         0.1036
      16    H11     21.261027   21.566677   20.041412 H          1 MOL1         0.1036
      17    H12     21.780514   20.073489   20.838560 H          1 MOL1         0.1036
@<TRIPOS>BOND
    1     1     2    1
    2     1     3    1
    3     1     4    1
    4     1     5    1
    5     5     6    1
    6     5     7    1
    7     5     8    1
    8     8     9    1
    9     8    10    1
   10     8    11    1
   11    11    12    1
   12    11    13    1
   13    11    14    1
   14    14    15    1
   15    14    16    1
   16    14    17    1
@<TRIPOS>SUBSTRUCTURE
       1 MOL1            1 RESIDUE      1      MOL     
@<SCITEGIC>MOL_PROPERTY
VConf Rank
SciTegic.value.IntegerValue
626

@<SCITEGIC>MOL_PROPERTY
Conf_Id
SciTegic.value.IntegerValue
36

@<SCITEGIC>MOL_PROPERTY
Delta U+W
SciTegic.value.DoubleValue
0.275

@<SCITEGIC>MOL_PROPERTY
U+W
SciTegic.value.DoubleValue
-15.590

@<SCITEGIC>MOL_PROPERTY
Grad RMS
SciTegic.value.DoubleValue
0.000000

@<SCITEGIC>MOL_PROPERTY
U
SciTegic.value.DoubleValue
45.174

@<SCITEGIC>MOL_PROPERTY
W
SciTegic.value.DoubleValue
-60.765

@<SCITEGIC>MOL_PROPERTY
W(PB)
SciTegic.value.DoubleValue
-62.518

@<SCITEGIC>MOL_PROPERTY
W(SA)
SciTegic.value.DoubleValue
1.754

@<SCITEGIC>MOL_PROPERTY
Valence
SciTegic.value.DoubleValue
1.161

@<SCITEGIC>MOL_PROPERTY
Coulomb
SciTegic.value.DoubleValue
43.789

@<SCITEGIC>MOL_PROPERTY
VdW
SciTegic.value.DoubleValue
0.224

@<SCITEGIC>MOL_PROPERTY
VdW6
SciTegic.value.DoubleValue
-2.897

@<SCITEGIC>MOL_PROPERTY
VdW12
SciTegic.value.DoubleValue
3.121

@<SCITEGIC>MOL_PROPERTY
Bond
SciTegic.value.DoubleValue
0.100

@<SCITEGIC>MOL_PROPERTY
Angle
SciTegic.value.DoubleValue
0.500

@<SCITEGIC>MOL_PROPERTY
Pdih
SciTegic.value.DoubleValue
0.561

@<SCITEGIC>MOL_PROPERTY
Idih
SciTegic.value.DoubleValue
0.000

@<SCITEGIC>MOL_PROPERTY
Tether
SciTegic.value.DoubleValue
0.000

@<TRIPOS>MOLECULE
guest-1_confgen4.mol2 : confsearch ligand conformer 627
          17          16           1
SMALL
USER_CHARGES
 
@<TRIPOS>ATOM
       1    N1      20.025775   20.775339   21.101000 N.4        1 MOL1        -0.5891
       2    H1      20.709073   20.560283   21.831547 H          1 MOL1         0.3726
       3    H2      19.232272   21.235889   21.556769 H          1 MOL1         0.3726
       4    H3      20.455124   21.468623   20.479840 H          1 MOL1         0.3726
       5    C1      19.598012   19.530770   20.347277 C.3        1 MOL1         0.0314
       6    H4      20.468719   19.122087   19.827518 H          1 MOL1         0.0999
       7    H5      18.872240   19.847229   19.593191 H          1 MOL1         0.0999
       8    C2      18.959377   18.440544   21.233373 C.3        1 MOL1        -0.1308
       9    H6      18.250837   18.896322   21.937623 H          1 MOL1         0.1025
      10    H7      18.360652   17.788851   20.583241 H          1 MOL1         0.1025
      11    C3      19.977216   17.551290   21.992277 C.3        1 MOL1        -0.1243
      12    H8      20.640253   17.051430   21.272177 H          1 MOL1         0.1025
      13    H9      19.423945   16.750306   22.502478 H          1 MOL1         0.1025
      14    C4      20.828631   18.305182   23.038996 C.3        1 MOL1        -0.2258
      15    H10     21.553833   18.974224   22.561355 H          1 MOL1         0.1036
      16    H11     21.400063   17.593285   23.648770 H          1 MOL1         0.1036
      17    H12     20.197176   18.893063   23.717829 H          1 MOL1         0.1036
@<TRIPOS>BOND
    1     1     2    1
    2     1     3    1
    3     1     4    1
    4     1     5    1
    5     5     6    1
    6     5     7    1
    7     5     8    1
    8     8     9    1
    9     8    10    1
   10     8    11    1
   11    11    12    1
   12    11    13    1
   13    11    14    1
   14    14    15    1
   15    14    16    1
   16    14    17    1
@<TRIPOS>SUBSTRUCTURE
       1 MOL1            1 RESIDUE      1      MOL     
@<SCITEGIC>MOL_PROPERTY
VConf Rank
SciTegic.value.IntegerValue
627

@<SCITEGIC>MOL_PROPERTY
Conf_Id
SciTegic.value.IntegerValue
19

@<SCITEGIC>MOL_PROPERTY
Delta U+W
SciTegic.value.DoubleValue
2.662

@<SCITEGIC>MOL_PROPERTY
U+W
SciTegic.value.DoubleValue
-13.203

@<SCITEGIC>MOL_PROPERTY
Grad RMS
SciTegic.value.DoubleValue
0.000000

@<SCITEGIC>MOL_PROPERTY
U
SciTegic.value.DoubleValue
47.423

@<SCITEGIC>MOL_PROPERTY
W
SciTegic.value.DoubleValue
-60.626

@<SCITEGIC>MOL_PROPERTY
W(PB)
SciTegic.value.DoubleValue
-62.328

@<SCITEGIC>MOL_PROPERTY
W(SA)
SciTegic.value.DoubleValue
1.702

@<SCITEGIC>MOL_PROPERTY
Valence
SciTegic.value.DoubleValue
2.414

@<SCITEGIC>MOL_PROPERTY
Coulomb
SciTegic.value.DoubleValue
44.831

@<SCITEGIC>MOL_PROPERTY
VdW
SciTegic.value.DoubleValue
0.178

@<SCITEGIC>MOL_PROPERTY
VdW6
SciTegic.value.DoubleValue
-3.743

@<SCITEGIC>MOL_PROPERTY
VdW12
SciTegic.value.DoubleValue
3.921

@<SCITEGIC>MOL_PROPERTY
Bond
SciTegic.value.DoubleValue
0.138

@<SCITEGIC>MOL_PROPERTY
Angle
SciTegic.value.DoubleValue
0.941

@<SCITEGIC>MOL_PROPERTY
Pdih
SciTegic.value.DoubleValue
1.335

@<SCITEGIC>MOL_PROPERTY
Idih
SciTegic.value.DoubleValue
0.000

@<SCITEGIC>MOL_PROPERTY
Tether
SciTegic.value.DoubleValue
0.000

@<TRIPOS>MOLECULE
guest-1_confgen4.mol2 : confsearch ligand conformer 628
          17          16           1
SMALL
USER_CHARGES
 
@<TRIPOS>ATOM
       1    N1      19.805697   17.242636   21.975775 N.4        1 MOL1        -0.5891
       2    H1      20.329834   16.403516   22.244070 H          1 MOL1         0.3726
       3    H2      18.876688   16.930019   21.677963 H          1 MOL1         0.3726
       4    H3      19.677710   17.802323   22.822659 H          1 MOL1         0.3726
       5    C1      20.513021   18.025270   20.886180 C.3        1 MOL1         0.0314
       6    H4      20.606511   17.359723   20.023716 H          1 MOL1         0.0999
       7    H5      21.520020   18.272384   21.232863 H          1 MOL1         0.0999
       8    C2      19.779938   19.311776   20.451323 C.3        1 MOL1        -0.1308
       9    H6      20.140995   19.580671   19.449734 H          1 MOL1         0.1025
      10    H7      18.705719   19.112852   20.340816 H          1 MOL1         0.1025
      11    C3      20.009808   20.528808   21.383361 C.3        1 MOL1        -0.1243
      12    H8      19.534045   21.408482   20.927495 H          1 MOL1         0.1025
      13    H9      21.083715   20.756967   21.435217 H          1 MOL1         0.1025
      14    C4      19.451032   20.352913   22.813644 C.3        1 MOL1        -0.2258
      15    H10     18.401629   20.031117   22.794867 H          1 MOL1         0.1036
      16    H11     19.497844   21.303911   23.360058 H          1 MOL1         0.1036
      17    H12     20.035006   19.623477   23.386861 H          1 MOL1         0.1036
@<TRIPOS>BOND
    1     1     2    1
    2     1     3    1
    3     1     4    1
    4     1     5    1
    5     5     6    1
    6     5     7    1
    7     5     8    1
    8     8     9    1
    9     8    10    1
   10     8    11    1
   11    11    12    1
   12    11    13    1
   13    11    14    1
   14    14    15    1
   15    14    16    1
   16    14    17    1
@<TRIPOS>SUBSTRUCTURE
       1 MOL1            1 RESIDUE      1      MOL     
@<SCITEGIC>MOL_PROPERTY
VConf Rank
SciTegic.value.IntegerValue
628

@<SCITEGIC>MOL_PROPERTY
Conf_Id
SciTegic.value.IntegerValue
44

@<SCITEGIC>MOL_PROPERTY
Delta U+W
SciTegic.value.DoubleValue
2.712

@<SCITEGIC>MOL_PROPERTY
U+W
SciTegic.value.DoubleValue
-13.153

@<SCITEGIC>MOL_PROPERTY
Grad RMS
SciTegic.value.DoubleValue
0.000000

@<SCITEGIC>MOL_PROPERTY
U
SciTegic.value.DoubleValue
47.423

@<SCITEGIC>MOL_PROPERTY
W
SciTegic.value.DoubleValue
-60.576

@<SCITEGIC>MOL_PROPERTY
W(PB)
SciTegic.value.DoubleValue
-62.262

@<SCITEGIC>MOL_PROPERTY
W(SA)
SciTegic.value.DoubleValue
1.687

@<SCITEGIC>MOL_PROPERTY
Valence
SciTegic.value.DoubleValue
2.414

@<SCITEGIC>MOL_PROPERTY
Coulomb
SciTegic.value.DoubleValue
44.831

@<SCITEGIC>MOL_PROPERTY
VdW
SciTegic.value.DoubleValue
0.178

@<SCITEGIC>MOL_PROPERTY
VdW6
SciTegic.value.DoubleValue
-3.743

@<SCITEGIC>MOL_PROPERTY
VdW12
SciTegic.value.DoubleValue
3.922

@<SCITEGIC>MOL_PROPERTY
Bond
SciTegic.value.DoubleValue
0.138

@<SCITEGIC>MOL_PROPERTY
Angle
SciTegic.value.DoubleValue
0.941

@<SCITEGIC>MOL_PROPERTY
Pdih
SciTegic.value.DoubleValue
1.335

@<SCITEGIC>MOL_PROPERTY
Idih
SciTegic.value.DoubleValue
0.000

@<SCITEGIC>MOL_PROPERTY
Tether
SciTegic.value.DoubleValue
0.000

@<TRIPOS>MOLECULE
guest-1_confgen4.mol2 : confsearch ligand conformer 629
          17          16           1
SMALL
USER_CHARGES
 
@<TRIPOS>ATOM
       1    N1      20.780094   20.044188   20.118280 N.4        1 MOL1        -0.5891
       2    H1      19.837435   20.426994   20.233604 H          1 MOL1         0.3726
       3    H2      20.782997   19.503374   19.248286 H          1 MOL1         0.3726
       4    H3      21.410767   20.839655   19.976319 H          1 MOL1         0.3726
       5    C1      21.194014   19.201839   21.309488 C.3        1 MOL1         0.0314
       6    H4      21.198266   19.843820   22.194161 H          1 MOL1         0.0999
       7    H5      22.217784   18.859515   21.135570 H          1 MOL1         0.0999
       8    C2      20.282580   17.981892   21.556341 C.3        1 MOL1        -0.1308
       9    H6      20.316814   17.322966   20.678620 H          1 MOL1         0.1025
      10    H7      20.693597   17.399710   22.391765 H          1 MOL1         0.1025
      11    C3      18.809880   18.348320   21.866890 C.3        1 MOL1        -0.1243
      12    H8      18.237879   17.421268   22.012815 H          1 MOL1         0.1025
      13    H9      18.355695   18.851671   21.002593 H          1 MOL1         0.1025
      14    C4      18.658721   19.234813   23.124300 C.3        1 MOL1        -0.2258
      15    H10     19.104871   18.751997   24.003450 H          1 MOL1         0.1036
      16    H11     17.598236   19.414616   23.343416 H          1 MOL1         0.1036
      17    H12     19.139013   20.212124   22.989650 H          1 MOL1         0.1036
@<TRIPOS>BOND
    1     1     2    1
    2     1     3    1
    3     1     4    1
    4     1     5    1
    5     5     6    1
    6     5     7    1
    7     5     8    1
    8     8     9    1
    9     8    10    1
   10     8    11    1
   11    11    12    1
   12    11    13    1
   13    11    14    1
   14    14    15    1
   15    14    16    1
   16    14    17    1
@<TRIPOS>SUBSTRUCTURE
       1 MOL1            1 RESIDUE      1      MOL     
@<SCITEGIC>MOL_PROPERTY
VConf Rank
SciTegic.value.IntegerValue
629

@<SCITEGIC>MOL_PROPERTY
Conf_Id
SciTegic.value.IntegerValue
1

@<SCITEGIC>MOL_PROPERTY
Delta U+W
SciTegic.value.DoubleValue
0.685

@<SCITEGIC>MOL_PROPERTY
U+W
SciTegic.value.DoubleValue
-15.179

@<SCITEGIC>MOL_PROPERTY
Grad RMS
SciTegic.value.DoubleValue
0.000000

@<SCITEGIC>MOL_PROPERTY
U
SciTegic.value.DoubleValue
45.697

@<SCITEGIC>MOL_PROPERTY
W
SciTegic.value.DoubleValue
-60.876

@<SCITEGIC>MOL_PROPERTY
W(PB)
SciTegic.value.DoubleValue
-62.586

@<SCITEGIC>MOL_PROPERTY
W(SA)
SciTegic.value.DoubleValue
1.710

@<SCITEGIC>MOL_PROPERTY
Valence
SciTegic.value.DoubleValue
1.263

@<SCITEGIC>MOL_PROPERTY
Coulomb
SciTegic.value.DoubleValue
44.179

@<SCITEGIC>MOL_PROPERTY
VdW
SciTegic.value.DoubleValue
0.255

@<SCITEGIC>MOL_PROPERTY
VdW6
SciTegic.value.DoubleValue
-3.552

@<SCITEGIC>MOL_PROPERTY
VdW12
SciTegic.value.DoubleValue
3.807

@<SCITEGIC>MOL_PROPERTY
Bond
SciTegic.value.DoubleValue
0.125

@<SCITEGIC>MOL_PROPERTY
Angle
SciTegic.value.DoubleValue
0.616

@<SCITEGIC>MOL_PROPERTY
Pdih
SciTegic.value.DoubleValue
0.521

@<SCITEGIC>MOL_PROPERTY
Idih
SciTegic.value.DoubleValue
0.000

@<SCITEGIC>MOL_PROPERTY
Tether
SciTegic.value.DoubleValue
0.000

@<TRIPOS>MOLECULE
guest-1_confgen4.mol2 : confsearch ligand conformer 630
          17          16           1
SMALL
USER_CHARGES
 
@<TRIPOS>ATOM
       1    N1      18.801782   20.012195   20.288779 N.4        1 MOL1        -0.5891
       2    H1      18.074598   20.562734   20.755133 H          1 MOL1         0.3726
       3    H2      18.487460   19.037707   20.284127 H          1 MOL1         0.3726
       4    H3      18.829507   20.322309   19.312189 H          1 MOL1         0.3726
       5    C1      20.149409   20.164595   20.967406 C.3        1 MOL1         0.0314
       6    H4      20.437899   21.217239   20.902205 H          1 MOL1         0.0999
       7    H5      20.880884   19.578488   20.405063 H          1 MOL1         0.0999
       8    C2      20.155536   19.723997   22.445836 C.3        1 MOL1        -0.1308
       9    H6      21.147643   19.929246   22.869391 H          1 MOL1         0.1025
      10    H7      19.447782   20.345646   23.010093 H          1 MOL1         0.1025
      11    C3      19.810080   18.229102   22.659162 C.3        1 MOL1        -0.1243
      12    H8      18.783782   18.027124   22.323647 H          1 MOL1         0.1025
      13    H9      19.824819   18.012870   23.736627 H          1 MOL1         0.1025
      14    C4      20.790100   17.272797   21.941640 C.3        1 MOL1        -0.2258
      15    H10     20.547095   16.227656   22.173149 H          1 MOL1         0.1036
      16    H11     21.824306   17.454667   22.261653 H          1 MOL1         0.1036
      17    H12     20.743304   17.389667   20.851640 H          1 MOL1         0.1036
@<TRIPOS>BOND
    1     1     2    1
    2     1     3    1
    3     1     4    1
    4     1     5    1
    5     5     6    1
    6     5     7    1
    7     5     8    1
    8     8     9    1
    9     8    10    1
   10     8    11    1
   11    11    12    1
   12    11    13    1
   13    11    14    1
   14    14    15    1
   15    14    16    1
   16    14    17    1
@<TRIPOS>SUBSTRUCTURE
       1 MOL1            1 RESIDUE      1      MOL     
@<SCITEGIC>MOL_PROPERTY
VConf Rank
SciTegic.value.IntegerValue
630

@<SCITEGIC>MOL_PROPERTY
Conf_Id
SciTegic.value.IntegerValue
43

@<SCITEGIC>MOL_PROPERTY
Delta U+W
SciTegic.value.DoubleValue
0.642

@<SCITEGIC>MOL_PROPERTY
U+W
SciTegic.value.DoubleValue
-15.222

@<SCITEGIC>MOL_PROPERTY
Grad RMS
SciTegic.value.DoubleValue
0.000000

@<SCITEGIC>MOL_PROPERTY
U
SciTegic.value.DoubleValue
45.697

@<SCITEGIC>MOL_PROPERTY
W
SciTegic.value.DoubleValue
-60.919

@<SCITEGIC>MOL_PROPERTY
W(PB)
SciTegic.value.DoubleValue
-62.631

@<SCITEGIC>MOL_PROPERTY
W(SA)
SciTegic.value.DoubleValue
1.712

@<SCITEGIC>MOL_PROPERTY
Valence
SciTegic.value.DoubleValue
1.262

@<SCITEGIC>MOL_PROPERTY
Coulomb
SciTegic.value.DoubleValue
44.179

@<SCITEGIC>MOL_PROPERTY
VdW
SciTegic.value.DoubleValue
0.255

@<SCITEGIC>MOL_PROPERTY
VdW6
SciTegic.value.DoubleValue
-3.552

@<SCITEGIC>MOL_PROPERTY
VdW12
SciTegic.value.DoubleValue
3.807

@<SCITEGIC>MOL_PROPERTY
Bond
SciTegic.value.DoubleValue
0.125

@<SCITEGIC>MOL_PROPERTY
Angle
SciTegic.value.DoubleValue
0.616

@<SCITEGIC>MOL_PROPERTY
Pdih
SciTegic.value.DoubleValue
0.521

@<SCITEGIC>MOL_PROPERTY
Idih
SciTegic.value.DoubleValue
0.000

@<SCITEGIC>MOL_PROPERTY
Tether
SciTegic.value.DoubleValue
0.000

@<TRIPOS>MOLECULE
guest-1_confgen4.mol2 : confsearch ligand conformer 631
          17          16           1
SMALL
USER_CHARGES
 
@<TRIPOS>ATOM
       1    N1      17.451859   18.501804   21.653209 N.4        1 MOL1        -0.5891
       2    H1      17.325886   18.365909   20.645559 H          1 MOL1         0.3726
       3    H2      17.110483   19.442040   21.874833 H          1 MOL1         0.3726
       4    H3      16.824197   17.840627   22.122031 H          1 MOL1         0.3726
       5    C1      18.894072   18.306743   22.076685 C.3        1 MOL1         0.0314
       6    H4      19.179465   17.278294   21.839272 H          1 MOL1         0.0999
       7    H5      18.947832   18.435439   23.161153 H          1 MOL1         0.0999
       8    C2      19.865365   19.284707   21.390800 C.3        1 MOL1        -0.1308
       9    H6      19.797322   19.163390   20.301468 H          1 MOL1         0.1025
      10    H7      19.566579   20.316540   21.618919 H          1 MOL1         0.1025
      11    C3      21.321804   19.052248   21.849352 C.3        1 MOL1        -0.1243
      12    H8      21.620362   18.018550   21.624278 H          1 MOL1         0.1025
      13    H9      21.389924   19.170361   22.940101 H          1 MOL1         0.1025
      14    C4      22.301958   20.029707   21.165374 C.3        1 MOL1        -0.2258
      15    H10     23.330239   19.848325   21.504178 H          1 MOL1         0.1036
      16    H11     22.049428   21.071916   21.400393 H          1 MOL1         0.1036
      17    H12     22.281633   19.911047   20.074175 H          1 MOL1         0.1036
@<TRIPOS>BOND
    1     1     2    1
    2     1     3    1
    3     1     4    1
    4     1     5    1
    5     5     6    1
    6     5     7    1
    7     5     8    1
    8     8     9    1
    9     8    10    1
   10     8    11    1
   11    11    12    1
   12    11    13    1
   13    11    14    1
   14    14    15    1
   15    14    16    1
   16    14    17    1
@<TRIPOS>SUBSTRUCTURE
       1 MOL1            1 RESIDUE      1      MOL     
@<SCITEGIC>MOL_PROPERTY
VConf Rank
SciTegic.value.IntegerValue
631

@<SCITEGIC>MOL_PROPERTY
Conf_Id
SciTegic.value.IntegerValue
7

@<SCITEGIC>MOL_PROPERTY
Delta U+W
SciTegic.value.DoubleValue
0.000

@<SCITEGIC>MOL_PROPERTY
U+W
SciTegic.value.DoubleValue
-15.865

@<SCITEGIC>MOL_PROPERTY
Grad RMS
SciTegic.value.DoubleValue
0.000000

@<SCITEGIC>MOL_PROPERTY
U
SciTegic.value.DoubleValue
44.664

@<SCITEGIC>MOL_PROPERTY
W
SciTegic.value.DoubleValue
-60.529

@<SCITEGIC>MOL_PROPERTY
W(PB)
SciTegic.value.DoubleValue
-62.309

@<SCITEGIC>MOL_PROPERTY
W(SA)
SciTegic.value.DoubleValue
1.780

@<SCITEGIC>MOL_PROPERTY
Valence
SciTegic.value.DoubleValue
0.872

@<SCITEGIC>MOL_PROPERTY
Coulomb
SciTegic.value.DoubleValue
43.648

@<SCITEGIC>MOL_PROPERTY
VdW
SciTegic.value.DoubleValue
0.144

@<SCITEGIC>MOL_PROPERTY
VdW6
SciTegic.value.DoubleValue
-2.370

@<SCITEGIC>MOL_PROPERTY
VdW12
SciTegic.value.DoubleValue
2.515

@<SCITEGIC>MOL_PROPERTY
Bond
SciTegic.value.DoubleValue
0.080

@<SCITEGIC>MOL_PROPERTY
Angle
SciTegic.value.DoubleValue
0.376

@<SCITEGIC>MOL_PROPERTY
Pdih
SciTegic.value.DoubleValue
0.416

@<SCITEGIC>MOL_PROPERTY
Idih
SciTegic.value.DoubleValue
0.000

@<SCITEGIC>MOL_PROPERTY
Tether
SciTegic.value.DoubleValue
0.000

@<TRIPOS>MOLECULE
guest-1_confgen4.mol2 : confsearch ligand conformer 632
          17          16           1
SMALL
USER_CHARGES
 
@<TRIPOS>ATOM
       1    N1      20.074078   16.751914   22.178182 N.4        1 MOL1        -0.5891
       2    H1      20.826511   16.623038   22.861470 H          1 MOL1         0.3726
       3    H2      20.425618   16.415152   21.276707 H          1 MOL1         0.3726
       4    H3      19.313076   16.122632   22.453359 H          1 MOL1         0.3726
       5    C1      19.614287   18.194348   22.105149 C.3        1 MOL1         0.0314
       6    H4      19.226248   18.475520   23.087889 H          1 MOL1         0.0999
       7    H5      18.794541   18.249426   21.384163 H          1 MOL1         0.0999
       8    C2      20.734937   19.168275   21.693364 C.3        1 MOL1        -0.1308
       9    H6      21.569693   19.076112   22.400870 H          1 MOL1         0.1025
      10    H7      21.125803   18.884853   20.707066 H          1 MOL1         0.1025
      11    C3      20.263226   20.640833   21.660667 C.3        1 MOL1        -0.1243
      12    H8      21.124686   21.286782   21.440172 H          1 MOL1         0.1025
      13    H9      19.902497   20.936333   22.656024 H          1 MOL1         0.1025
      14    C4      19.158300   20.898200   20.610496 C.3        1 MOL1        -0.2258
      15    H10     19.491603   20.605227   19.606404 H          1 MOL1         0.1036
      16    H11     18.898019   21.964159   20.578977 H          1 MOL1         0.1036
      17    H12     18.242258   20.340968   20.843839 H          1 MOL1         0.1036
@<TRIPOS>BOND
    1     1     2    1
    2     1     3    1
    3     1     4    1
    4     1     5    1
    5     5     6    1
    6     5     7    1
    7     5     8    1
    8     8     9    1
    9     8    10    1
   10     8    11    1
   11    11    12    1
   12    11    13    1
   13    11    14    1
   14    14    15    1
   15    14    16    1
   16    14    17    1
@<TRIPOS>SUBSTRUCTURE
       1 MOL1            1 RESIDUE      1      MOL     
@<SCITEGIC>MOL_PROPERTY
VConf Rank
SciTegic.value.IntegerValue
632

@<SCITEGIC>MOL_PROPERTY
Conf_Id
SciTegic.value.IntegerValue
36

@<SCITEGIC>MOL_PROPERTY
Delta U+W
SciTegic.value.DoubleValue
0.275

@<SCITEGIC>MOL_PROPERTY
U+W
SciTegic.value.DoubleValue
-15.590

@<SCITEGIC>MOL_PROPERTY
Grad RMS
SciTegic.value.DoubleValue
0.000000

@<SCITEGIC>MOL_PROPERTY
U
SciTegic.value.DoubleValue
45.174

@<SCITEGIC>MOL_PROPERTY
W
SciTegic.value.DoubleValue
-60.765

@<SCITEGIC>MOL_PROPERTY
W(PB)
SciTegic.value.DoubleValue
-62.518

@<SCITEGIC>MOL_PROPERTY
W(SA)
SciTegic.value.DoubleValue
1.754

@<SCITEGIC>MOL_PROPERTY
Valence
SciTegic.value.DoubleValue
1.161

@<SCITEGIC>MOL_PROPERTY
Coulomb
SciTegic.value.DoubleValue
43.789

@<SCITEGIC>MOL_PROPERTY
VdW
SciTegic.value.DoubleValue
0.224

@<SCITEGIC>MOL_PROPERTY
VdW6
SciTegic.value.DoubleValue
-2.897

@<SCITEGIC>MOL_PROPERTY
VdW12
SciTegic.value.DoubleValue
3.121

@<SCITEGIC>MOL_PROPERTY
Bond
SciTegic.value.DoubleValue
0.100

@<SCITEGIC>MOL_PROPERTY
Angle
SciTegic.value.DoubleValue
0.500

@<SCITEGIC>MOL_PROPERTY
Pdih
SciTegic.value.DoubleValue
0.561

@<SCITEGIC>MOL_PROPERTY
Idih
SciTegic.value.DoubleValue
0.000

@<SCITEGIC>MOL_PROPERTY
Tether
SciTegic.value.DoubleValue
0.000

@<TRIPOS>MOLECULE
guest-1_confgen4.mol2 : confsearch ligand conformer 633
          17          16           1
SMALL
USER_CHARGES
 
@<TRIPOS>ATOM
       1    N1      18.410915   20.031211   21.780692 N.4        1 MOL1        -0.5891
       2    H1      18.571292   19.461205   22.615088 H          1 MOL1         0.3726
       3    H2      17.682853   19.563970   21.231974 H          1 MOL1         0.3726
       4    H3      18.018705   20.924500   22.095379 H          1 MOL1         0.3726
       5    C1      19.683628   20.225019   20.979024 C.3        1 MOL1         0.0314
       6    H4      20.396934   20.786206   21.588585 H          1 MOL1         0.0999
       7    H5      19.424856   20.838156   20.111476 H          1 MOL1         0.0999
       8    C2      20.332397   18.912397   20.491445 C.3        1 MOL1        -0.1308
       9    H6      19.562083   18.236679   20.096793 H          1 MOL1         0.1025
      10    H7      20.983327   19.156200   19.641330 H          1 MOL1         0.1025
      11    C3      21.192291   18.185904   21.557042 C.3        1 MOL1        -0.1243
      12    H8      21.998112   18.851101   21.897904 H          1 MOL1         0.1025
      13    H9      21.687479   17.330006   21.077234 H          1 MOL1         0.1025
      14    C4      20.396704   17.672687   22.778735 C.3        1 MOL1        -0.2258
      15    H10     20.054832   18.499301   23.412381 H          1 MOL1         0.1036
      16    H11     21.030687   17.029362   23.402718 H          1 MOL1         0.1036
      17    H12     19.526103   17.080814   22.467460 H          1 MOL1         0.1036
@<TRIPOS>BOND
    1     1     2    1
    2     1     3    1
    3     1     4    1
    4     1     5    1
    5     5     6    1
    6     5     7    1
    7     5     8    1
    8     8     9    1
    9     8    10    1
   10     8    11    1
   11    11    12    1
   12    11    13    1
   13    11    14    1
   14    14    15    1
   15    14    16    1
   16    14    17    1
@<TRIPOS>SUBSTRUCTURE
       1 MOL1            1 RESIDUE      1      MOL     
@<SCITEGIC>MOL_PROPERTY
VConf Rank
SciTegic.value.IntegerValue
633

@<SCITEGIC>MOL_PROPERTY
Conf_Id
SciTegic.value.IntegerValue
19

@<SCITEGIC>MOL_PROPERTY
Delta U+W
SciTegic.value.DoubleValue
2.662

@<SCITEGIC>MOL_PROPERTY
U+W
SciTegic.value.DoubleValue
-13.203

@<SCITEGIC>MOL_PROPERTY
Grad RMS
SciTegic.value.DoubleValue
0.000000

@<SCITEGIC>MOL_PROPERTY
U
SciTegic.value.DoubleValue
47.423

@<SCITEGIC>MOL_PROPERTY
W
SciTegic.value.DoubleValue
-60.626

@<SCITEGIC>MOL_PROPERTY
W(PB)
SciTegic.value.DoubleValue
-62.328

@<SCITEGIC>MOL_PROPERTY
W(SA)
SciTegic.value.DoubleValue
1.702

@<SCITEGIC>MOL_PROPERTY
Valence
SciTegic.value.DoubleValue
2.414

@<SCITEGIC>MOL_PROPERTY
Coulomb
SciTegic.value.DoubleValue
44.831

@<SCITEGIC>MOL_PROPERTY
VdW
SciTegic.value.DoubleValue
0.178

@<SCITEGIC>MOL_PROPERTY
VdW6
SciTegic.value.DoubleValue
-3.743

@<SCITEGIC>MOL_PROPERTY
VdW12
SciTegic.value.DoubleValue
3.921

@<SCITEGIC>MOL_PROPERTY
Bond
SciTegic.value.DoubleValue
0.138

@<SCITEGIC>MOL_PROPERTY
Angle
SciTegic.value.DoubleValue
0.941

@<SCITEGIC>MOL_PROPERTY
Pdih
SciTegic.value.DoubleValue
1.335

@<SCITEGIC>MOL_PROPERTY
Idih
SciTegic.value.DoubleValue
0.000

@<SCITEGIC>MOL_PROPERTY
Tether
SciTegic.value.DoubleValue
0.000

@<TRIPOS>MOLECULE
guest-1_confgen4.mol2 : confsearch ligand conformer 634
          17          16           1
SMALL
USER_CHARGES
 
@<TRIPOS>ATOM
       1    N1      20.654406   19.749562   20.056729 N.4        1 MOL1        -0.5891
       2    H1      20.563177   20.406704   19.275279 H          1 MOL1         0.3726
       3    H2      21.442509   19.133334   19.836189 H          1 MOL1         0.3726
       4    H3      20.920291   20.295061   20.880488 H          1 MOL1         0.3726
       5    C1      19.375653   18.967902   20.288758 C.3        1 MOL1         0.0314
       6    H4      19.166477   18.416362   19.368115 H          1 MOL1         0.0999
       7    H5      18.559058   19.676547   20.450917 H          1 MOL1         0.0999
       8    C2      19.445193   17.972751   21.466235 C.3        1 MOL1        -0.1308
       9    H6      18.660334   17.219758   21.315094 H          1 MOL1         0.1025
      10    H7      20.396734   17.425398   21.439704 H          1 MOL1         0.1025
      11    C3      19.229726   18.612147   22.861746 C.3        1 MOL1        -0.1243
      12    H8      19.193717   17.807257   23.609306 H          1 MOL1         0.1025
      13    H9      18.246677   19.102531   22.895785 H          1 MOL1         0.1025
      14    C4      20.323552   19.621729   23.277882 C.3        1 MOL1        -0.2258
      15    H10     21.327146   19.191678   23.163839 H          1 MOL1         0.1036
      16    H11     20.200031   19.903729   24.331625 H          1 MOL1         0.1036
      17    H12     20.264531   20.544395   22.688913 H          1 MOL1         0.1036
@<TRIPOS>BOND
    1     1     2    1
    2     1     3    1
    3     1     4    1
    4     1     5    1
    5     5     6    1
    6     5     7    1
    7     5     8    1
    8     8     9    1
    9     8    10    1
   10     8    11    1
   11    11    12    1
   12    11    13    1
   13    11    14    1
   14    14    15    1
   15    14    16    1
   16    14    17    1
@<TRIPOS>SUBSTRUCTURE
       1 MOL1            1 RESIDUE      1      MOL     
@<SCITEGIC>MOL_PROPERTY
VConf Rank
SciTegic.value.IntegerValue
634

@<SCITEGIC>MOL_PROPERTY
Conf_Id
SciTegic.value.IntegerValue
44

@<SCITEGIC>MOL_PROPERTY
Delta U+W
SciTegic.value.DoubleValue
2.712

@<SCITEGIC>MOL_PROPERTY
U+W
SciTegic.value.DoubleValue
-13.153

@<SCITEGIC>MOL_PROPERTY
Grad RMS
SciTegic.value.DoubleValue
0.000000

@<SCITEGIC>MOL_PROPERTY
U
SciTegic.value.DoubleValue
47.423

@<SCITEGIC>MOL_PROPERTY
W
SciTegic.value.DoubleValue
-60.576

@<SCITEGIC>MOL_PROPERTY
W(PB)
SciTegic.value.DoubleValue
-62.262

@<SCITEGIC>MOL_PROPERTY
W(SA)
SciTegic.value.DoubleValue
1.687

@<SCITEGIC>MOL_PROPERTY
Valence
SciTegic.value.DoubleValue
2.414

@<SCITEGIC>MOL_PROPERTY
Coulomb
SciTegic.value.DoubleValue
44.831

@<SCITEGIC>MOL_PROPERTY
VdW
SciTegic.value.DoubleValue
0.178

@<SCITEGIC>MOL_PROPERTY
VdW6
SciTegic.value.DoubleValue
-3.743

@<SCITEGIC>MOL_PROPERTY
VdW12
SciTegic.value.DoubleValue
3.922

@<SCITEGIC>MOL_PROPERTY
Bond
SciTegic.value.DoubleValue
0.138

@<SCITEGIC>MOL_PROPERTY
Angle
SciTegic.value.DoubleValue
0.941

@<SCITEGIC>MOL_PROPERTY
Pdih
SciTegic.value.DoubleValue
1.335

@<SCITEGIC>MOL_PROPERTY
Idih
SciTegic.value.DoubleValue
0.000

@<SCITEGIC>MOL_PROPERTY
Tether
SciTegic.value.DoubleValue
0.000

@<TRIPOS>MOLECULE
guest-1_confgen4.mol2 : confsearch ligand conformer 635
          17          16           1
SMALL
USER_CHARGES
 
@<TRIPOS>ATOM
       1    N1      18.452254   17.980830   22.421352 N.4        1 MOL1        -0.5891
       2    H1      19.099781   18.232861   23.173440 H          1 MOL1         0.3726
       3    H2      18.567610   16.978223   22.245706 H          1 MOL1         0.3726
       4    H3      17.503611   18.111717   22.786884 H          1 MOL1         0.3726
       5    C1      18.694029   18.805620   21.171903 C.3        1 MOL1         0.0314
       6    H4      18.526329   19.856590   21.421186 H          1 MOL1         0.0999
       7    H5      17.947605   18.511344   20.429076 H          1 MOL1         0.0999
       8    C2      20.105560   18.631519   20.574249 C.3        1 MOL1        -0.1308
       9    H6      20.249356   17.580761   20.289679 H          1 MOL1         0.1025
      10    H7      20.166946   19.211302   19.643718 H          1 MOL1         0.1025
      11    C3      21.249630   19.068358   21.522843 C.3        1 MOL1        -0.1243
      12    H8      22.211522   18.895321   21.020122 H          1 MOL1         0.1025
      13    H9      21.258593   18.435011   22.420309 H          1 MOL1         0.1025
      14    C4      21.159242   20.555317   21.935858 C.3        1 MOL1        -0.2258
      15    H10     21.149766   21.209761   21.054564 H          1 MOL1         0.1036
      16    H11     22.022704   20.836840   22.552418 H          1 MOL1         0.1036
      17    H12     20.254106   20.757387   22.522242 H          1 MOL1         0.1036
@<TRIPOS>BOND
    1     1     2    1
    2     1     3    1
    3     1     4    1
    4     1     5    1
    5     5     6    1
    6     5     7    1
    7     5     8    1
    8     8     9    1
    9     8    10    1
   10     8    11    1
   11    11    12    1
   12    11    13    1
   13    11    14    1
   14    14    15    1
   15    14    16    1
   16    14    17    1
@<TRIPOS>SUBSTRUCTURE
       1 MOL1            1 RESIDUE      1      MOL     
@<SCITEGIC>MOL_PROPERTY
VConf Rank
SciTegic.value.IntegerValue
635

@<SCITEGIC>MOL_PROPERTY
Conf_Id
SciTegic.value.IntegerValue
1

@<SCITEGIC>MOL_PROPERTY
Delta U+W
SciTegic.value.DoubleValue
0.685

@<SCITEGIC>MOL_PROPERTY
U+W
SciTegic.value.DoubleValue
-15.179

@<SCITEGIC>MOL_PROPERTY
Grad RMS
SciTegic.value.DoubleValue
0.000000

@<SCITEGIC>MOL_PROPERTY
U
SciTegic.value.DoubleValue
45.697

@<SCITEGIC>MOL_PROPERTY
W
SciTegic.value.DoubleValue
-60.876

@<SCITEGIC>MOL_PROPERTY
W(PB)
SciTegic.value.DoubleValue
-62.586

@<SCITEGIC>MOL_PROPERTY
W(SA)
SciTegic.value.DoubleValue
1.710

@<SCITEGIC>MOL_PROPERTY
Valence
SciTegic.value.DoubleValue
1.263

@<SCITEGIC>MOL_PROPERTY
Coulomb
SciTegic.value.DoubleValue
44.179

@<SCITEGIC>MOL_PROPERTY
VdW
SciTegic.value.DoubleValue
0.255

@<SCITEGIC>MOL_PROPERTY
VdW6
SciTegic.value.DoubleValue
-3.552

@<SCITEGIC>MOL_PROPERTY
VdW12
SciTegic.value.DoubleValue
3.807

@<SCITEGIC>MOL_PROPERTY
Bond
SciTegic.value.DoubleValue
0.125

@<SCITEGIC>MOL_PROPERTY
Angle
SciTegic.value.DoubleValue
0.616

@<SCITEGIC>MOL_PROPERTY
Pdih
SciTegic.value.DoubleValue
0.521

@<SCITEGIC>MOL_PROPERTY
Idih
SciTegic.value.DoubleValue
0.000

@<SCITEGIC>MOL_PROPERTY
Tether
SciTegic.value.DoubleValue
0.000

@<TRIPOS>MOLECULE
guest-1_confgen4.mol2 : confsearch ligand conformer 636
          17          16           1
SMALL
USER_CHARGES
 
@<TRIPOS>ATOM
       1    N1      20.616494   19.704647   23.335032 N.4        1 MOL1        -0.5891
       2    H1      20.121888   20.550683   23.633303 H          1 MOL1         0.3726
       3    H2      21.287925   19.984686   22.614472 H          1 MOL1         0.3726
       4    H3      21.160408   19.378397   24.140256 H          1 MOL1         0.3726
       5    C1      19.662156   18.639636   22.830205 C.3        1 MOL1         0.0314
       6    H4      19.003179   18.363656   23.657926 H          1 MOL1         0.0999
       7    H5      20.249553   17.758894   22.558060 H          1 MOL1         0.0999
       8    C2      18.808876   19.088362   21.625847 C.3        1 MOL1        -0.1308
       9    H6      18.107761   18.282163   21.372304 H          1 MOL1         0.1025
      10    H7      18.192490   19.947796   21.921124 H          1 MOL1         0.1025
      11    C3      19.636829   19.457030   20.369608 C.3        1 MOL1        -0.1243
      12    H8      20.278355   20.323284   20.581040 H          1 MOL1         0.1025
      13    H9      18.949205   19.776131   19.573836 H          1 MOL1         0.1025
      14    C4      20.499605   18.285259   19.847722 C.3        1 MOL1        -0.2258
      15    H10     21.016629   18.570170   18.922260 H          1 MOL1         0.1036
      16    H11     19.879833   17.406298   19.627776 H          1 MOL1         0.1036
      17    H12     21.264802   17.990948   20.576970 H          1 MOL1         0.1036
@<TRIPOS>BOND
    1     1     2    1
    2     1     3    1
    3     1     4    1
    4     1     5    1
    5     5     6    1
    6     5     7    1
    7     5     8    1
    8     8     9    1
    9     8    10    1
   10     8    11    1
   11    11    12    1
   12    11    13    1
   13    11    14    1
   14    14    15    1
   15    14    16    1
   16    14    17    1
@<TRIPOS>SUBSTRUCTURE
       1 MOL1            1 RESIDUE      1      MOL     
@<SCITEGIC>MOL_PROPERTY
VConf Rank
SciTegic.value.IntegerValue
636

@<SCITEGIC>MOL_PROPERTY
Conf_Id
SciTegic.value.IntegerValue
43

@<SCITEGIC>MOL_PROPERTY
Delta U+W
SciTegic.value.DoubleValue
0.642

@<SCITEGIC>MOL_PROPERTY
U+W
SciTegic.value.DoubleValue
-15.222

@<SCITEGIC>MOL_PROPERTY
Grad RMS
SciTegic.value.DoubleValue
0.000000

@<SCITEGIC>MOL_PROPERTY
U
SciTegic.value.DoubleValue
45.697

@<SCITEGIC>MOL_PROPERTY
W
SciTegic.value.DoubleValue
-60.919

@<SCITEGIC>MOL_PROPERTY
W(PB)
SciTegic.value.DoubleValue
-62.631

@<SCITEGIC>MOL_PROPERTY
W(SA)
SciTegic.value.DoubleValue
1.712

@<SCITEGIC>MOL_PROPERTY
Valence
SciTegic.value.DoubleValue
1.262

@<SCITEGIC>MOL_PROPERTY
Coulomb
SciTegic.value.DoubleValue
44.179

@<SCITEGIC>MOL_PROPERTY
VdW
SciTegic.value.DoubleValue
0.255

@<SCITEGIC>MOL_PROPERTY
VdW6
SciTegic.value.DoubleValue
-3.552

@<SCITEGIC>MOL_PROPERTY
VdW12
SciTegic.value.DoubleValue
3.807

@<SCITEGIC>MOL_PROPERTY
Bond
SciTegic.value.DoubleValue
0.125

@<SCITEGIC>MOL_PROPERTY
Angle
SciTegic.value.DoubleValue
0.616

@<SCITEGIC>MOL_PROPERTY
Pdih
SciTegic.value.DoubleValue
0.521

@<SCITEGIC>MOL_PROPERTY
Idih
SciTegic.value.DoubleValue
0.000

@<SCITEGIC>MOL_PROPERTY
Tether
SciTegic.value.DoubleValue
0.000

@<TRIPOS>MOLECULE
guest-1_confgen4.mol2 : confsearch ligand conformer 637
          17          16           1
SMALL
USER_CHARGES
 
@<TRIPOS>ATOM
       1    N1      17.616852   18.516107   22.506671 N.4        1 MOL1        -0.5891
       2    H1      17.894419   18.294454   23.467672 H          1 MOL1         0.3726
       3    H2      17.489746   17.625026   22.017266 H          1 MOL1         0.3726
       4    H3      16.693961   18.959249   22.559636 H          1 MOL1         0.3726
       5    C1      18.630000   19.405245   21.813618 C.3        1 MOL1         0.0314
       6    H4      18.690917   20.344722   22.369672 H          1 MOL1         0.0999
       7    H5      18.255740   19.624910   20.810024 H          1 MOL1         0.0999
       8    C2      20.028940   18.769789   21.716557 C.3        1 MOL1        -0.1308
       9    H6      20.394960   18.536423   22.725299 H          1 MOL1         0.1025
      10    H7      19.961307   17.819174   21.170896 H          1 MOL1         0.1025
      11    C3      21.029231   19.707124   21.004979 C.3        1 MOL1        -0.1243
      12    H8      21.094868   20.660122   21.548866 H          1 MOL1         0.1025
      13    H9      20.661792   19.943691   19.996341 H          1 MOL1         0.1025
      14    C4      22.434882   19.076334   20.903965 C.3        1 MOL1        -0.2258
      15    H10     23.129984   19.757304   20.395868 H          1 MOL1         0.1036
      16    H11     22.407172   18.137970   20.334833 H          1 MOL1         0.1036
      17    H12     22.843635   18.860002   21.899620 H          1 MOL1         0.1036
@<TRIPOS>BOND
    1     1     2    1
    2     1     3    1
    3     1     4    1
    4     1     5    1
    5     5     6    1
    6     5     7    1
    7     5     8    1
    8     8     9    1
    9     8    10    1
   10     8    11    1
   11    11    12    1
   12    11    13    1
   13    11    14    1
   14    14    15    1
   15    14    16    1
   16    14    17    1
@<TRIPOS>SUBSTRUCTURE
       1 MOL1            1 RESIDUE      1      MOL     
@<SCITEGIC>MOL_PROPERTY
VConf Rank
SciTegic.value.IntegerValue
637

@<SCITEGIC>MOL_PROPERTY
Conf_Id
SciTegic.value.IntegerValue
7

@<SCITEGIC>MOL_PROPERTY
Delta U+W
SciTegic.value.DoubleValue
0.000

@<SCITEGIC>MOL_PROPERTY
U+W
SciTegic.value.DoubleValue
-15.865

@<SCITEGIC>MOL_PROPERTY
Grad RMS
SciTegic.value.DoubleValue
0.000000

@<SCITEGIC>MOL_PROPERTY
U
SciTegic.value.DoubleValue
44.664

@<SCITEGIC>MOL_PROPERTY
W
SciTegic.value.DoubleValue
-60.529

@<SCITEGIC>MOL_PROPERTY
W(PB)
SciTegic.value.DoubleValue
-62.309

@<SCITEGIC>MOL_PROPERTY
W(SA)
SciTegic.value.DoubleValue
1.780

@<SCITEGIC>MOL_PROPERTY
Valence
SciTegic.value.DoubleValue
0.872

@<SCITEGIC>MOL_PROPERTY
Coulomb
SciTegic.value.DoubleValue
43.648

@<SCITEGIC>MOL_PROPERTY
VdW
SciTegic.value.DoubleValue
0.144

@<SCITEGIC>MOL_PROPERTY
VdW6
SciTegic.value.DoubleValue
-2.370

@<SCITEGIC>MOL_PROPERTY
VdW12
SciTegic.value.DoubleValue
2.515

@<SCITEGIC>MOL_PROPERTY
Bond
SciTegic.value.DoubleValue
0.080

@<SCITEGIC>MOL_PROPERTY
Angle
SciTegic.value.DoubleValue
0.376

@<SCITEGIC>MOL_PROPERTY
Pdih
SciTegic.value.DoubleValue
0.416

@<SCITEGIC>MOL_PROPERTY
Idih
SciTegic.value.DoubleValue
0.000

@<SCITEGIC>MOL_PROPERTY
Tether
SciTegic.value.DoubleValue
0.000

@<TRIPOS>MOLECULE
guest-1_confgen4.mol2 : confsearch ligand conformer 638
          17          16           1
SMALL
USER_CHARGES
 
@<TRIPOS>ATOM
       1    N1      18.863486   21.262494   21.627203 N.4        1 MOL1        -0.5891
       2    H1      18.455560   21.430860   20.702596 H          1 MOL1         0.3726
       3    H2      19.710901   21.834770   21.690717 H          1 MOL1         0.3726
       4    H3      18.201612   21.635571   22.315373 H          1 MOL1         0.3726
       5    C1      19.151985   19.793069   21.861543 C.3        1 MOL1         0.0314
       6    H4      18.204398   19.250136   21.809466 H          1 MOL1         0.0999
       7    H5      19.553063   19.686685   22.872808 H          1 MOL1         0.0999
       8    C2      20.144828   19.199808   20.843574 C.3        1 MOL1        -0.1308
       9    H6      19.751334   19.347597   19.829080 H          1 MOL1         0.1025
      10    H7      21.095994   19.746212   20.894719 H          1 MOL1         0.1025
      11    C3      20.400547   17.691286   21.069347 C.3        1 MOL1        -0.1243
      12    H8      21.049924   17.315227   20.266308 H          1 MOL1         0.1025
      13    H9      19.454137   17.138613   20.985425 H          1 MOL1         0.1025
      14    C4      21.059692   17.387823   22.434410 C.3        1 MOL1        -0.2258
      15    H10     22.005713   17.933389   22.546336 H          1 MOL1         0.1036
      16    H11     21.278520   16.316067   22.526389 H          1 MOL1         0.1036
      17    H12     20.403687   17.664165   23.269504 H          1 MOL1         0.1036
@<TRIPOS>BOND
    1     1     2    1
    2     1     3    1
    3     1     4    1
    4     1     5    1
    5     5     6    1
    6     5     7    1
    7     5     8    1
    8     8     9    1
    9     8    10    1
   10     8    11    1
   11    11    12    1
   12    11    13    1
   13    11    14    1
   14    14    15    1
   15    14    16    1
   16    14    17    1
@<TRIPOS>SUBSTRUCTURE
       1 MOL1            1 RESIDUE      1      MOL     
@<SCITEGIC>MOL_PROPERTY
VConf Rank
SciTegic.value.IntegerValue
638

@<SCITEGIC>MOL_PROPERTY
Conf_Id
SciTegic.value.IntegerValue
36

@<SCITEGIC>MOL_PROPERTY
Delta U+W
SciTegic.value.DoubleValue
0.275

@<SCITEGIC>MOL_PROPERTY
U+W
SciTegic.value.DoubleValue
-15.590

@<SCITEGIC>MOL_PROPERTY
Grad RMS
SciTegic.value.DoubleValue
0.000000

@<SCITEGIC>MOL_PROPERTY
U
SciTegic.value.DoubleValue
45.174

@<SCITEGIC>MOL_PROPERTY
W
SciTegic.value.DoubleValue
-60.765

@<SCITEGIC>MOL_PROPERTY
W(PB)
SciTegic.value.DoubleValue
-62.518

@<SCITEGIC>MOL_PROPERTY
W(SA)
SciTegic.value.DoubleValue
1.754

@<SCITEGIC>MOL_PROPERTY
Valence
SciTegic.value.DoubleValue
1.161

@<SCITEGIC>MOL_PROPERTY
Coulomb
SciTegic.value.DoubleValue
43.789

@<SCITEGIC>MOL_PROPERTY
VdW
SciTegic.value.DoubleValue
0.224

@<SCITEGIC>MOL_PROPERTY
VdW6
SciTegic.value.DoubleValue
-2.897

@<SCITEGIC>MOL_PROPERTY
VdW12
SciTegic.value.DoubleValue
3.121

@<SCITEGIC>MOL_PROPERTY
Bond
SciTegic.value.DoubleValue
0.100

@<SCITEGIC>MOL_PROPERTY
Angle
SciTegic.value.DoubleValue
0.500

@<SCITEGIC>MOL_PROPERTY
Pdih
SciTegic.value.DoubleValue
0.561

@<SCITEGIC>MOL_PROPERTY
Idih
SciTegic.value.DoubleValue
0.000

@<SCITEGIC>MOL_PROPERTY
Tether
SciTegic.value.DoubleValue
0.000

@<TRIPOS>MOLECULE
guest-1_confgen4.mol2 : confsearch ligand conformer 639
          17          16           1
SMALL
USER_CHARGES
 
@<TRIPOS>ATOM
       1    N1      18.388227   18.385246   22.431815 N.4        1 MOL1        -0.5891
       2    H1      18.749438   19.228041   22.885762 H          1 MOL1         0.3726
       3    H2      18.668568   17.587672   23.010403 H          1 MOL1         0.3726
       4    H3      17.365104   18.435585   22.470652 H          1 MOL1         0.3726
       5    C1      18.892931   18.253386   21.007766 C.3        1 MOL1         0.0314
       6    H4      18.508028   19.093061   20.422875 H          1 MOL1         0.0999
       7    H5      18.464522   17.333508   20.600547 H          1 MOL1         0.0999
       8    C2      20.429814   18.190607   20.882612 C.3        1 MOL1        -0.1308
       9    H6      20.842010   17.520879   21.648960 H          1 MOL1         0.1025
      10    H7      20.668427   17.725932   19.916700 H          1 MOL1         0.1025
      11    C3      21.135851   19.569531   20.935401 C.3        1 MOL1        -0.1243
      12    H8      20.759783   20.208599   20.124114 H          1 MOL1         0.1025
      13    H9      22.205406   19.418623   20.732254 H          1 MOL1         0.1025
      14    C4      20.990844   20.310506   22.284034 C.3        1 MOL1        -0.2258
      15    H10     19.966690   20.669986   22.437525 H          1 MOL1         0.1036
      16    H11     21.647800   21.189713   22.307677 H          1 MOL1         0.1036
      17    H12     21.269756   19.663840   23.126164 H          1 MOL1         0.1036
@<TRIPOS>BOND
    1     1     2    1
    2     1     3    1
    3     1     4    1
    4     1     5    1
    5     5     6    1
    6     5     7    1
    7     5     8    1
    8     8     9    1
    9     8    10    1
   10     8    11    1
   11    11    12    1
   12    11    13    1
   13    11    14    1
   14    14    15    1
   15    14    16    1
   16    14    17    1
@<TRIPOS>SUBSTRUCTURE
       1 MOL1            1 RESIDUE      1      MOL     
@<SCITEGIC>MOL_PROPERTY
VConf Rank
SciTegic.value.IntegerValue
639

@<SCITEGIC>MOL_PROPERTY
Conf_Id
SciTegic.value.IntegerValue
19

@<SCITEGIC>MOL_PROPERTY
Delta U+W
SciTegic.value.DoubleValue
2.662

@<SCITEGIC>MOL_PROPERTY
U+W
SciTegic.value.DoubleValue
-13.203

@<SCITEGIC>MOL_PROPERTY
Grad RMS
SciTegic.value.DoubleValue
0.000000

@<SCITEGIC>MOL_PROPERTY
U
SciTegic.value.DoubleValue
47.423

@<SCITEGIC>MOL_PROPERTY
W
SciTegic.value.DoubleValue
-60.626

@<SCITEGIC>MOL_PROPERTY
W(PB)
SciTegic.value.DoubleValue
-62.328

@<SCITEGIC>MOL_PROPERTY
W(SA)
SciTegic.value.DoubleValue
1.702

@<SCITEGIC>MOL_PROPERTY
Valence
SciTegic.value.DoubleValue
2.414

@<SCITEGIC>MOL_PROPERTY
Coulomb
SciTegic.value.DoubleValue
44.831

@<SCITEGIC>MOL_PROPERTY
VdW
SciTegic.value.DoubleValue
0.178

@<SCITEGIC>MOL_PROPERTY
VdW6
SciTegic.value.DoubleValue
-3.743

@<SCITEGIC>MOL_PROPERTY
VdW12
SciTegic.value.DoubleValue
3.921

@<SCITEGIC>MOL_PROPERTY
Bond
SciTegic.value.DoubleValue
0.138

@<SCITEGIC>MOL_PROPERTY
Angle
SciTegic.value.DoubleValue
0.941

@<SCITEGIC>MOL_PROPERTY
Pdih
SciTegic.value.DoubleValue
1.335

@<SCITEGIC>MOL_PROPERTY
Idih
SciTegic.value.DoubleValue
0.000

@<SCITEGIC>MOL_PROPERTY
Tether
SciTegic.value.DoubleValue
0.000

@<TRIPOS>MOLECULE
guest-1_confgen4.mol2 : confsearch ligand conformer 640
          17          16           1
SMALL
USER_CHARGES
 
@<TRIPOS>ATOM
       1    N1      21.486526   19.811623   21.040638 N.4        1 MOL1        -0.5891
       2    H1      22.287697   19.738951   20.405289 H          1 MOL1         0.3726
       3    H2      21.721519   20.527922   21.734305 H          1 MOL1         0.3726
       4    H3      20.699036   20.169069   20.493887 H          1 MOL1         0.3726
       5    C1      21.160814   18.481479   21.692305 C.3        1 MOL1         0.0314
       6    H4      22.047570   18.174747   22.253656 H          1 MOL1         0.0999
       7    H5      20.986303   17.742114   20.906056 H          1 MOL1         0.0999
       8    C2      19.950058   18.522982   22.648316 C.3        1 MOL1        -0.1308
       9    H6      20.032378   17.666295   23.330340 H          1 MOL1         0.1025
      10    H7      20.002244   19.418334   23.281839 H          1 MOL1         0.1025
      11    C3      18.571769   18.440533   21.943882 C.3        1 MOL1        -0.1243
      12    H8      17.792305   18.371501   22.715672 H          1 MOL1         0.1025
      13    H9      18.508288   17.509088   21.363880 H          1 MOL1         0.1025
      14    C4      18.250392   19.641748   21.025908 C.3        1 MOL1        -0.2258
      15    H10     18.397106   20.594844   21.550537 H          1 MOL1         0.1036
      16    H11     17.203710   19.600279   20.697439 H          1 MOL1         0.1036
      17    H12     18.871496   19.635339   20.122653 H          1 MOL1         0.1036
@<TRIPOS>BOND
    1     1     2    1
    2     1     3    1
    3     1     4    1
    4     1     5    1
    5     5     6    1
    6     5     7    1
    7     5     8    1
    8     8     9    1
    9     8    10    1
   10     8    11    1
   11    11    12    1
   12    11    13    1
   13    11    14    1
   14    14    15    1
   15    14    16    1
   16    14    17    1
@<TRIPOS>SUBSTRUCTURE
       1 MOL1            1 RESIDUE      1      MOL     
@<SCITEGIC>MOL_PROPERTY
VConf Rank
SciTegic.value.IntegerValue
640

@<SCITEGIC>MOL_PROPERTY
Conf_Id
SciTegic.value.IntegerValue
44

@<SCITEGIC>MOL_PROPERTY
Delta U+W
SciTegic.value.DoubleValue
2.712

@<SCITEGIC>MOL_PROPERTY
U+W
SciTegic.value.DoubleValue
-13.153

@<SCITEGIC>MOL_PROPERTY
Grad RMS
SciTegic.value.DoubleValue
0.000000

@<SCITEGIC>MOL_PROPERTY
U
SciTegic.value.DoubleValue
47.423

@<SCITEGIC>MOL_PROPERTY
W
SciTegic.value.DoubleValue
-60.576

@<SCITEGIC>MOL_PROPERTY
W(PB)
SciTegic.value.DoubleValue
-62.262

@<SCITEGIC>MOL_PROPERTY
W(SA)
SciTegic.value.DoubleValue
1.687

@<SCITEGIC>MOL_PROPERTY
Valence
SciTegic.value.DoubleValue
2.414

@<SCITEGIC>MOL_PROPERTY
Coulomb
SciTegic.value.DoubleValue
44.831

@<SCITEGIC>MOL_PROPERTY
VdW
SciTegic.value.DoubleValue
0.178

@<SCITEGIC>MOL_PROPERTY
VdW6
SciTegic.value.DoubleValue
-3.743

@<SCITEGIC>MOL_PROPERTY
VdW12
SciTegic.value.DoubleValue
3.922

@<SCITEGIC>MOL_PROPERTY
Bond
SciTegic.value.DoubleValue
0.138

@<SCITEGIC>MOL_PROPERTY
Angle
SciTegic.value.DoubleValue
0.941

@<SCITEGIC>MOL_PROPERTY
Pdih
SciTegic.value.DoubleValue
1.335

@<SCITEGIC>MOL_PROPERTY
Idih
SciTegic.value.DoubleValue
0.000

@<SCITEGIC>MOL_PROPERTY
Tether
SciTegic.value.DoubleValue
0.000

@<TRIPOS>MOLECULE
guest-1_confgen4.mol2 : confsearch ligand conformer 641
          17          16           1
SMALL
USER_CHARGES
 
@<TRIPOS>ATOM
       1    N1      19.655142   21.003505   21.472419 N.4        1 MOL1        -0.5891
       2    H1      18.936612   20.643749   22.107034 H          1 MOL1         0.3726
       3    H2      19.185644   21.264500   20.600162 H          1 MOL1         0.3726
       4    H3      20.014675   21.869065   21.887400 H          1 MOL1         0.3726
       5    C1      20.758111   19.989039   21.239661 C.3        1 MOL1         0.0314
       6    H4      21.234059   19.778491   22.200883 H          1 MOL1         0.0999
       7    H5      21.503900   20.451764   20.587570 H          1 MOL1         0.0999
       8    C2      20.268721   18.672322   20.601951 C.3        1 MOL1        -0.1308
       9    H6      19.829108   18.889330   19.619405 H          1 MOL1         0.1025
      10    H7      21.138475   18.029375   20.412345 H          1 MOL1         0.1025
      11    C3      19.241524   17.897991   21.464989 C.3        1 MOL1        -0.1243
      12    H8      18.941793   16.987895   20.926666 H          1 MOL1         0.1025
      13    H9      18.326263   18.492982   21.587209 H          1 MOL1         0.1025
      14    C4      19.793881   17.501297   22.853273 C.3        1 MOL1        -0.2258
      15    H10     20.709859   16.903899   22.757521 H          1 MOL1         0.1036
      16    H11     19.058160   16.899984   23.402914 H          1 MOL1         0.1036
      17    H12     20.022715   18.383576   23.464147 H          1 MOL1         0.1036
@<TRIPOS>BOND
    1     1     2    1
    2     1     3    1
    3     1     4    1
    4     1     5    1
    5     5     6    1
    6     5     7    1
    7     5     8    1
    8     8     9    1
    9     8    10    1
   10     8    11    1
   11    11    12    1
   12    11    13    1
   13    11    14    1
   14    14    15    1
   15    14    16    1
   16    14    17    1
@<TRIPOS>SUBSTRUCTURE
       1 MOL1            1 RESIDUE      1      MOL     
@<SCITEGIC>MOL_PROPERTY
VConf Rank
SciTegic.value.IntegerValue
641

@<SCITEGIC>MOL_PROPERTY
Conf_Id
SciTegic.value.IntegerValue
1

@<SCITEGIC>MOL_PROPERTY
Delta U+W
SciTegic.value.DoubleValue
0.685

@<SCITEGIC>MOL_PROPERTY
U+W
SciTegic.value.DoubleValue
-15.179

@<SCITEGIC>MOL_PROPERTY
Grad RMS
SciTegic.value.DoubleValue
0.000000

@<SCITEGIC>MOL_PROPERTY
U
SciTegic.value.DoubleValue
45.697

@<SCITEGIC>MOL_PROPERTY
W
SciTegic.value.DoubleValue
-60.876

@<SCITEGIC>MOL_PROPERTY
W(PB)
SciTegic.value.DoubleValue
-62.586

@<SCITEGIC>MOL_PROPERTY
W(SA)
SciTegic.value.DoubleValue
1.710

@<SCITEGIC>MOL_PROPERTY
Valence
SciTegic.value.DoubleValue
1.263

@<SCITEGIC>MOL_PROPERTY
Coulomb
SciTegic.value.DoubleValue
44.179

@<SCITEGIC>MOL_PROPERTY
VdW
SciTegic.value.DoubleValue
0.255

@<SCITEGIC>MOL_PROPERTY
VdW6
SciTegic.value.DoubleValue
-3.552

@<SCITEGIC>MOL_PROPERTY
VdW12
SciTegic.value.DoubleValue
3.807

@<SCITEGIC>MOL_PROPERTY
Bond
SciTegic.value.DoubleValue
0.125

@<SCITEGIC>MOL_PROPERTY
Angle
SciTegic.value.DoubleValue
0.616

@<SCITEGIC>MOL_PROPERTY
Pdih
SciTegic.value.DoubleValue
0.521

@<SCITEGIC>MOL_PROPERTY
Idih
SciTegic.value.DoubleValue
0.000

@<SCITEGIC>MOL_PROPERTY
Tether
SciTegic.value.DoubleValue
0.000

@<TRIPOS>MOLECULE
guest-1_confgen4.mol2 : confsearch ligand conformer 642
          17          16           1
SMALL
USER_CHARGES
 
@<TRIPOS>ATOM
       1    N1      18.141129   19.268683   20.760298 N.4        1 MOL1        -0.5891
       2    H1      18.105184   20.117639   20.188144 H          1 MOL1         0.3726
       3    H2      18.055157   19.559002   21.738446 H          1 MOL1         0.3726
       4    H3      17.303308   18.722609   20.535519 H          1 MOL1         0.3726
       5    C1      19.411905   18.477048   20.518843 C.3        1 MOL1         0.0314
       6    H4      19.418497   18.169827   19.469505 H          1 MOL1         0.0999
       7    H5      19.371988   17.574832   21.134650 H          1 MOL1         0.0999
       8    C2      20.703121   19.262105   20.829274 C.3        1 MOL1        -0.1308
       9    H6      21.566369   18.636808   20.565435 H          1 MOL1         0.1025
      10    H7      20.754105   20.144237   20.177360 H          1 MOL1         0.1025
      11    C3      20.829697   19.707403   22.307532 C.3        1 MOL1        -0.1243
      12    H8      20.022605   20.408032   22.561258 H          1 MOL1         0.1025
      13    H9      21.767143   20.268049   22.429087 H          1 MOL1         0.1025
      14    C4      20.821239   18.522043   23.299825 C.3        1 MOL1        -0.2258
      15    H10     20.978603   18.878008   24.326224 H          1 MOL1         0.1036
      16    H11     21.621112   17.807061   23.067291 H          1 MOL1         0.1036
      17    H12     19.864824   17.984653   23.279051 H          1 MOL1         0.1036
@<TRIPOS>BOND
    1     1     2    1
    2     1     3    1
    3     1     4    1
    4     1     5    1
    5     5     6    1
    6     5     7    1
    7     5     8    1
    8     8     9    1
    9     8    10    1
   10     8    11    1
   11    11    12    1
   12    11    13    1
   13    11    14    1
   14    14    15    1
   15    14    16    1
   16    14    17    1
@<TRIPOS>SUBSTRUCTURE
       1 MOL1            1 RESIDUE      1      MOL     
@<SCITEGIC>MOL_PROPERTY
VConf Rank
SciTegic.value.IntegerValue
642

@<SCITEGIC>MOL_PROPERTY
Conf_Id
SciTegic.value.IntegerValue
43

@<SCITEGIC>MOL_PROPERTY
Delta U+W
SciTegic.value.DoubleValue
0.642

@<SCITEGIC>MOL_PROPERTY
U+W
SciTegic.value.DoubleValue
-15.222

@<SCITEGIC>MOL_PROPERTY
Grad RMS
SciTegic.value.DoubleValue
0.000000

@<SCITEGIC>MOL_PROPERTY
U
SciTegic.value.DoubleValue
45.697

@<SCITEGIC>MOL_PROPERTY
W
SciTegic.value.DoubleValue
-60.919

@<SCITEGIC>MOL_PROPERTY
W(PB)
SciTegic.value.DoubleValue
-62.631

@<SCITEGIC>MOL_PROPERTY
W(SA)
SciTegic.value.DoubleValue
1.712

@<SCITEGIC>MOL_PROPERTY
Valence
SciTegic.value.DoubleValue
1.262

@<SCITEGIC>MOL_PROPERTY
Coulomb
SciTegic.value.DoubleValue
44.179

@<SCITEGIC>MOL_PROPERTY
VdW
SciTegic.value.DoubleValue
0.255

@<SCITEGIC>MOL_PROPERTY
VdW6
SciTegic.value.DoubleValue
-3.552

@<SCITEGIC>MOL_PROPERTY
VdW12
SciTegic.value.DoubleValue
3.807

@<SCITEGIC>MOL_PROPERTY
Bond
SciTegic.value.DoubleValue
0.125

@<SCITEGIC>MOL_PROPERTY
Angle
SciTegic.value.DoubleValue
0.616

@<SCITEGIC>MOL_PROPERTY
Pdih
SciTegic.value.DoubleValue
0.521

@<SCITEGIC>MOL_PROPERTY
Idih
SciTegic.value.DoubleValue
0.000

@<SCITEGIC>MOL_PROPERTY
Tether
SciTegic.value.DoubleValue
0.000

@<TRIPOS>MOLECULE
guest-1_confgen4.mol2 : confsearch ligand conformer 643
          17          16           1
SMALL
USER_CHARGES
 
@<TRIPOS>ATOM
       1    N1      21.064579   16.768348   21.280917 N.4        1 MOL1        -0.5891
       2    H1      20.308424   16.329287   20.746923 H          1 MOL1         0.3726
       3    H2      20.978085   16.442379   22.248368 H          1 MOL1         0.3726
       4    H3      21.944021   16.387116   20.917390 H          1 MOL1         0.3726
       5    C1      21.023633   18.280477   21.185283 C.3        1 MOL1         0.0314
       6    H4      21.151804   18.555895   20.134930 H          1 MOL1         0.0999
       7    H5      21.871937   18.677510   21.749436 H          1 MOL1         0.0999
       8    C2      19.714945   18.887211   21.723309 C.3        1 MOL1        -0.1308
       9    H6      18.864230   18.474532   21.164766 H          1 MOL1         0.1025
      10    H7      19.581960   18.595856   22.773746 H          1 MOL1         0.1025
      11    C3      19.714431   20.427369   21.607402 C.3        1 MOL1        -0.1243
      12    H8      19.850843   20.719668   20.556555 H          1 MOL1         0.1025
      13    H9      20.567645   20.840853   22.163624 H          1 MOL1         0.1025
      14    C4      18.404616   21.043109   22.145182 C.3        1 MOL1        -0.2258
      15    H10     18.424141   22.136884   22.053953 H          1 MOL1         0.1036
      16    H11     18.257789   20.796673   23.204860 H          1 MOL1         0.1036
      17    H12     17.535325   20.674477   21.585136 H          1 MOL1         0.1036
@<TRIPOS>BOND
    1     1     2    1
    2     1     3    1
    3     1     4    1
    4     1     5    1
    5     5     6    1
    6     5     7    1
    7     5     8    1
    8     8     9    1
    9     8    10    1
   10     8    11    1
   11    11    12    1
   12    11    13    1
   13    11    14    1
   14    14    15    1
   15    14    16    1
   16    14    17    1
@<TRIPOS>SUBSTRUCTURE
       1 MOL1            1 RESIDUE      1      MOL     
@<SCITEGIC>MOL_PROPERTY
VConf Rank
SciTegic.value.IntegerValue
643

@<SCITEGIC>MOL_PROPERTY
Conf_Id
SciTegic.value.IntegerValue
7

@<SCITEGIC>MOL_PROPERTY
Delta U+W
SciTegic.value.DoubleValue
0.000

@<SCITEGIC>MOL_PROPERTY
U+W
SciTegic.value.DoubleValue
-15.865

@<SCITEGIC>MOL_PROPERTY
Grad RMS
SciTegic.value.DoubleValue
0.000000

@<SCITEGIC>MOL_PROPERTY
U
SciTegic.value.DoubleValue
44.664

@<SCITEGIC>MOL_PROPERTY
W
SciTegic.value.DoubleValue
-60.529

@<SCITEGIC>MOL_PROPERTY
W(PB)
SciTegic.value.DoubleValue
-62.309

@<SCITEGIC>MOL_PROPERTY
W(SA)
SciTegic.value.DoubleValue
1.780

@<SCITEGIC>MOL_PROPERTY
Valence
SciTegic.value.DoubleValue
0.872

@<SCITEGIC>MOL_PROPERTY
Coulomb
SciTegic.value.DoubleValue
43.648

@<SCITEGIC>MOL_PROPERTY
VdW
SciTegic.value.DoubleValue
0.144

@<SCITEGIC>MOL_PROPERTY
VdW6
SciTegic.value.DoubleValue
-2.370

@<SCITEGIC>MOL_PROPERTY
VdW12
SciTegic.value.DoubleValue
2.515

@<SCITEGIC>MOL_PROPERTY
Bond
SciTegic.value.DoubleValue
0.080

@<SCITEGIC>MOL_PROPERTY
Angle
SciTegic.value.DoubleValue
0.376

@<SCITEGIC>MOL_PROPERTY
Pdih
SciTegic.value.DoubleValue
0.416

@<SCITEGIC>MOL_PROPERTY
Idih
SciTegic.value.DoubleValue
0.000

@<SCITEGIC>MOL_PROPERTY
Tether
SciTegic.value.DoubleValue
0.000

@<TRIPOS>MOLECULE
guest-1_confgen4.mol2 : confsearch ligand conformer 644
          17          16           1
SMALL
USER_CHARGES
 
@<TRIPOS>ATOM
       1    N1      19.215651   20.155670   23.668879 N.4        1 MOL1        -0.5891
       2    H1      18.195434   20.089277   23.735193 H          1 MOL1         0.3726
       3    H2      19.437970   21.122029   23.411255 H          1 MOL1         0.3726
       4    H3      19.584122   20.008651   24.614108 H          1 MOL1         0.3726
       5    C1      19.786469   19.158906   22.679948 C.3        1 MOL1         0.0314
       6    H4      19.538254   18.153887   23.031706 H          1 MOL1         0.0999
       7    H5      20.874342   19.265382   22.685846 H          1 MOL1         0.0999
       8    C2      19.253099   19.352114   21.247417 C.3        1 MOL1        -0.1308
       9    H6      18.157205   19.283145   21.259161 H          1 MOL1         0.1025
      10    H7      19.500945   20.362112   20.894762 H          1 MOL1         0.1025
      11    C3      19.812641   18.304906   20.256320 C.3        1 MOL1        -0.1243
      12    H8      19.333627   18.448137   19.277539 H          1 MOL1         0.1025
      13    H9      19.536821   17.294633   20.590169 H          1 MOL1         0.1025
      14    C4      21.346442   18.394346   20.084825 C.3        1 MOL1        -0.2258
      15    H10     21.649533   19.397256   19.757056 H          1 MOL1         0.1036
      16    H11     21.691763   17.676736   19.329315 H          1 MOL1         0.1036
      17    H12     21.871064   18.166586   21.021301 H          1 MOL1         0.1036
@<TRIPOS>BOND
    1     1     2    1
    2     1     3    1
    3     1     4    1
    4     1     5    1
    5     5     6    1
    6     5     7    1
    7     5     8    1
    8     8     9    1
    9     8    10    1
   10     8    11    1
   11    11    12    1
   12    11    13    1
   13    11    14    1
   14    14    15    1
   15    14    16    1
   16    14    17    1
@<TRIPOS>SUBSTRUCTURE
       1 MOL1            1 RESIDUE      1      MOL     
@<SCITEGIC>MOL_PROPERTY
VConf Rank
SciTegic.value.IntegerValue
644

@<SCITEGIC>MOL_PROPERTY
Conf_Id
SciTegic.value.IntegerValue
36

@<SCITEGIC>MOL_PROPERTY
Delta U+W
SciTegic.value.DoubleValue
0.275

@<SCITEGIC>MOL_PROPERTY
U+W
SciTegic.value.DoubleValue
-15.590

@<SCITEGIC>MOL_PROPERTY
Grad RMS
SciTegic.value.DoubleValue
0.000000

@<SCITEGIC>MOL_PROPERTY
U
SciTegic.value.DoubleValue
45.174

@<SCITEGIC>MOL_PROPERTY
W
SciTegic.value.DoubleValue
-60.765

@<SCITEGIC>MOL_PROPERTY
W(PB)
SciTegic.value.DoubleValue
-62.518

@<SCITEGIC>MOL_PROPERTY
W(SA)
SciTegic.value.DoubleValue
1.754

@<SCITEGIC>MOL_PROPERTY
Valence
SciTegic.value.DoubleValue
1.161

@<SCITEGIC>MOL_PROPERTY
Coulomb
SciTegic.value.DoubleValue
43.789

@<SCITEGIC>MOL_PROPERTY
VdW
SciTegic.value.DoubleValue
0.224

@<SCITEGIC>MOL_PROPERTY
VdW6
SciTegic.value.DoubleValue
-2.897

@<SCITEGIC>MOL_PROPERTY
VdW12
SciTegic.value.DoubleValue
3.121

@<SCITEGIC>MOL_PROPERTY
Bond
SciTegic.value.DoubleValue
0.100

@<SCITEGIC>MOL_PROPERTY
Angle
SciTegic.value.DoubleValue
0.500

@<SCITEGIC>MOL_PROPERTY
Pdih
SciTegic.value.DoubleValue
0.561

@<SCITEGIC>MOL_PROPERTY
Idih
SciTegic.value.DoubleValue
0.000

@<SCITEGIC>MOL_PROPERTY
Tether
SciTegic.value.DoubleValue
0.000

@<TRIPOS>MOLECULE
guest-1_confgen4.mol2 : confsearch ligand conformer 645
          17          16           1
SMALL
USER_CHARGES
 
@<TRIPOS>ATOM
       1    N1      18.588590   18.159616   20.627885 N.4        1 MOL1        -0.5891
       2    H1      19.142421   17.476107   21.150314 H          1 MOL1         0.3726
       3    H2      18.915114   18.133316   19.657231 H          1 MOL1         0.3726
       4    H3      17.619674   17.824931   20.624722 H          1 MOL1         0.3726
       5    C1      18.703392   19.549582   21.223574 C.3        1 MOL1         0.0314
       6    H4      18.279347   19.532613   22.231145 H          1 MOL1         0.0999
       7    H5      18.088117   20.212589   20.609249 H          1 MOL1         0.0999
       8    C2      20.143552   20.102020   21.272209 C.3        1 MOL1        -0.1308
       9    H6      20.657954   19.893652   20.324738 H          1 MOL1         0.1025
      10    H7      20.080315   21.195800   21.346328 H          1 MOL1         0.1025
      11    C3      20.987804   19.591413   22.467710 C.3        1 MOL1        -0.1243
      12    H8      20.493537   19.861791   23.411436 H          1 MOL1         0.1025
      13    H9      21.949212   20.124025   22.464880 H          1 MOL1         0.1025
      14    C4      21.267239   18.071388   22.449735 C.3        1 MOL1        -0.2258
      15    H10     20.360059   17.493006   22.659915 H          1 MOL1         0.1036
      16    H11     22.001946   17.810416   23.222558 H          1 MOL1         0.1036
      17    H12     21.674926   17.752451   21.481632 H          1 MOL1         0.1036
@<TRIPOS>BOND
    1     1     2    1
    2     1     3    1
    3     1     4    1
    4     1     5    1
    5     5     6    1
    6     5     7    1
    7     5     8    1
    8     8     9    1
    9     8    10    1
   10     8    11    1
   11    11    12    1
   12    11    13    1
   13    11    14    1
   14    14    15    1
   15    14    16    1
   16    14    17    1
@<TRIPOS>SUBSTRUCTURE
       1 MOL1            1 RESIDUE      1      MOL     
@<SCITEGIC>MOL_PROPERTY
VConf Rank
SciTegic.value.IntegerValue
645

@<SCITEGIC>MOL_PROPERTY
Conf_Id
SciTegic.value.IntegerValue
19

@<SCITEGIC>MOL_PROPERTY
Delta U+W
SciTegic.value.DoubleValue
2.662

@<SCITEGIC>MOL_PROPERTY
U+W
SciTegic.value.DoubleValue
-13.203

@<SCITEGIC>MOL_PROPERTY
Grad RMS
SciTegic.value.DoubleValue
0.000000

@<SCITEGIC>MOL_PROPERTY
U
SciTegic.value.DoubleValue
47.423

@<SCITEGIC>MOL_PROPERTY
W
SciTegic.value.DoubleValue
-60.626

@<SCITEGIC>MOL_PROPERTY
W(PB)
SciTegic.value.DoubleValue
-62.328

@<SCITEGIC>MOL_PROPERTY
W(SA)
SciTegic.value.DoubleValue
1.702

@<SCITEGIC>MOL_PROPERTY
Valence
SciTegic.value.DoubleValue
2.414

@<SCITEGIC>MOL_PROPERTY
Coulomb
SciTegic.value.DoubleValue
44.831

@<SCITEGIC>MOL_PROPERTY
VdW
SciTegic.value.DoubleValue
0.178

@<SCITEGIC>MOL_PROPERTY
VdW6
SciTegic.value.DoubleValue
-3.743

@<SCITEGIC>MOL_PROPERTY
VdW12
SciTegic.value.DoubleValue
3.921

@<SCITEGIC>MOL_PROPERTY
Bond
SciTegic.value.DoubleValue
0.138

@<SCITEGIC>MOL_PROPERTY
Angle
SciTegic.value.DoubleValue
0.941

@<SCITEGIC>MOL_PROPERTY
Pdih
SciTegic.value.DoubleValue
1.335

@<SCITEGIC>MOL_PROPERTY
Idih
SciTegic.value.DoubleValue
0.000

@<SCITEGIC>MOL_PROPERTY
Tether
SciTegic.value.DoubleValue
0.000

@<TRIPOS>MOLECULE
guest-1_confgen4.mol2 : confsearch ligand conformer 646
          17          16           1
SMALL
USER_CHARGES
 
@<TRIPOS>ATOM
       1    N1      18.430044   20.100300   21.078674 N.4        1 MOL1        -0.5891
       2    H1      17.879825   20.947659   21.252069 H          1 MOL1         0.3726
       3    H2      17.893499   19.527226   20.420505 H          1 MOL1         0.3726
       4    H3      19.285829   20.389089   20.597969 H          1 MOL1         0.3726
       5    C1      18.731704   19.351016   22.362268 C.3        1 MOL1         0.0314
       6    H4      17.770654   19.079676   22.807569 H          1 MOL1         0.0999
       7    H5      19.242851   20.030155   23.049873 H          1 MOL1         0.0999
       8    C2      19.574411   18.072891   22.167708 C.3        1 MOL1        -0.1308
       9    H6      19.413871   17.429467   23.042967 H          1 MOL1         0.1025
      10    H7      19.202227   17.505402   21.304479 H          1 MOL1         0.1025
      11    C3      21.098328   18.322158   22.032623 C.3        1 MOL1        -0.1243
      12    H8      21.607183   17.348334   22.005730 H          1 MOL1         0.1025
      13    H9      21.470100   18.834441   22.931162 H          1 MOL1         0.1025
      14    C4      21.505637   19.125126   20.776350 C.3        1 MOL1        -0.2258
      15    H10     21.069220   18.691398   19.867190 H          1 MOL1         0.1036
      16    H11     22.596978   19.118268   20.657677 H          1 MOL1         0.1036
      17    H12     21.196849   20.174240   20.851792 H          1 MOL1         0.1036
@<TRIPOS>BOND
    1     1     2    1
    2     1     3    1
    3     1     4    1
    4     1     5    1
    5     5     6    1
    6     5     7    1
    7     5     8    1
    8     8     9    1
    9     8    10    1
   10     8    11    1
   11    11    12    1
   12    11    13    1
   13    11    14    1
   14    14    15    1
   15    14    16    1
   16    14    17    1
@<TRIPOS>SUBSTRUCTURE
       1 MOL1            1 RESIDUE      1      MOL     
@<SCITEGIC>MOL_PROPERTY
VConf Rank
SciTegic.value.IntegerValue
646

@<SCITEGIC>MOL_PROPERTY
Conf_Id
SciTegic.value.IntegerValue
44

@<SCITEGIC>MOL_PROPERTY
Delta U+W
SciTegic.value.DoubleValue
2.712

@<SCITEGIC>MOL_PROPERTY
U+W
SciTegic.value.DoubleValue
-13.153

@<SCITEGIC>MOL_PROPERTY
Grad RMS
SciTegic.value.DoubleValue
0.000000

@<SCITEGIC>MOL_PROPERTY
U
SciTegic.value.DoubleValue
47.423

@<SCITEGIC>MOL_PROPERTY
W
SciTegic.value.DoubleValue
-60.576

@<SCITEGIC>MOL_PROPERTY
W(PB)
SciTegic.value.DoubleValue
-62.262

@<SCITEGIC>MOL_PROPERTY
W(SA)
SciTegic.value.DoubleValue
1.687

@<SCITEGIC>MOL_PROPERTY
Valence
SciTegic.value.DoubleValue
2.414

@<SCITEGIC>MOL_PROPERTY
Coulomb
SciTegic.value.DoubleValue
44.831

@<SCITEGIC>MOL_PROPERTY
VdW
SciTegic.value.DoubleValue
0.178

@<SCITEGIC>MOL_PROPERTY
VdW6
SciTegic.value.DoubleValue
-3.743

@<SCITEGIC>MOL_PROPERTY
VdW12
SciTegic.value.DoubleValue
3.922

@<SCITEGIC>MOL_PROPERTY
Bond
SciTegic.value.DoubleValue
0.138

@<SCITEGIC>MOL_PROPERTY
Angle
SciTegic.value.DoubleValue
0.941

@<SCITEGIC>MOL_PROPERTY
Pdih
SciTegic.value.DoubleValue
1.335

@<SCITEGIC>MOL_PROPERTY
Idih
SciTegic.value.DoubleValue
0.000

@<SCITEGIC>MOL_PROPERTY
Tether
SciTegic.value.DoubleValue
0.000

@<TRIPOS>MOLECULE
guest-1_confgen4.mol2 : confsearch ligand conformer 647
          17          16           1
SMALL
USER_CHARGES
 
@<TRIPOS>ATOM
       1    N1      20.912121   20.362937   20.501179 N.4        1 MOL1        -0.5891
       2    H1      19.914166   20.548211   20.366245 H          1 MOL1         0.3726
       3    H2      21.262548   19.945180   19.633966 H          1 MOL1         0.3726
       4    H3      21.374386   21.272289   20.601462 H          1 MOL1         0.3726
       5    C1      21.160377   19.468719   21.700596 C.3        1 MOL1         0.0314
       6    H4      20.791308   19.984582   22.590808 H          1 MOL1         0.0999
       7    H5      22.241689   19.345176   21.805669 H          1 MOL1         0.0999
       8    C2      20.496052   18.080730   21.590687 C.3        1 MOL1        -0.1308
       9    H6      20.903018   17.554559   20.717033 H          1 MOL1         0.1025
      10    H7      20.781806   17.484174   22.467197 H          1 MOL1         0.1025
      11    C3      18.951095   18.128042   21.488588 C.3        1 MOL1        -0.1243
      12    H8      18.570784   17.100708   21.399978 H          1 MOL1         0.1025
      13    H9      18.649206   18.643417   20.566684 H          1 MOL1         0.1025
      14    C4      18.284283   18.807002   22.706855 C.3        1 MOL1        -0.2258
      15    H10     18.570290   18.308308   23.642041 H          1 MOL1         0.1036
      16    H11     17.190782   18.759684   22.623279 H          1 MOL1         0.1036
      17    H12     18.564732   19.865045   22.783281 H          1 MOL1         0.1036
@<TRIPOS>BOND
    1     1     2    1
    2     1     3    1
    3     1     4    1
    4     1     5    1
    5     5     6    1
    6     5     7    1
    7     5     8    1
    8     8     9    1
    9     8    10    1
   10     8    11    1
   11    11    12    1
   12    11    13    1
   13    11    14    1
   14    14    15    1
   15    14    16    1
   16    14    17    1
@<TRIPOS>SUBSTRUCTURE
       1 MOL1            1 RESIDUE      1      MOL     
@<SCITEGIC>MOL_PROPERTY
VConf Rank
SciTegic.value.IntegerValue
647

@<SCITEGIC>MOL_PROPERTY
Conf_Id
SciTegic.value.IntegerValue
1

@<SCITEGIC>MOL_PROPERTY
Delta U+W
SciTegic.value.DoubleValue
0.685

@<SCITEGIC>MOL_PROPERTY
U+W
SciTegic.value.DoubleValue
-15.179

@<SCITEGIC>MOL_PROPERTY
Grad RMS
SciTegic.value.DoubleValue
0.000000

@<SCITEGIC>MOL_PROPERTY
U
SciTegic.value.DoubleValue
45.697

@<SCITEGIC>MOL_PROPERTY
W
SciTegic.value.DoubleValue
-60.876

@<SCITEGIC>MOL_PROPERTY
W(PB)
SciTegic.value.DoubleValue
-62.586

@<SCITEGIC>MOL_PROPERTY
W(SA)
SciTegic.value.DoubleValue
1.710

@<SCITEGIC>MOL_PROPERTY
Valence
SciTegic.value.DoubleValue
1.263

@<SCITEGIC>MOL_PROPERTY
Coulomb
SciTegic.value.DoubleValue
44.179

@<SCITEGIC>MOL_PROPERTY
VdW
SciTegic.value.DoubleValue
0.255

@<SCITEGIC>MOL_PROPERTY
VdW6
SciTegic.value.DoubleValue
-3.552

@<SCITEGIC>MOL_PROPERTY
VdW12
SciTegic.value.DoubleValue
3.807

@<SCITEGIC>MOL_PROPERTY
Bond
SciTegic.value.DoubleValue
0.125

@<SCITEGIC>MOL_PROPERTY
Angle
SciTegic.value.DoubleValue
0.616

@<SCITEGIC>MOL_PROPERTY
Pdih
SciTegic.value.DoubleValue
0.521

@<SCITEGIC>MOL_PROPERTY
Idih
SciTegic.value.DoubleValue
0.000

@<SCITEGIC>MOL_PROPERTY
Tether
SciTegic.value.DoubleValue
0.000

@<TRIPOS>MOLECULE
guest-1_confgen4.mol2 : confsearch ligand conformer 648
          17          16           1
SMALL
USER_CHARGES
 
@<TRIPOS>ATOM
       1    N1      18.087232   19.715503   21.290125 N.4        1 MOL1        -0.5891
       2    H1      17.674096   20.085469   22.151415 H          1 MOL1         0.3726
       3    H2      18.023678   18.694666   21.338107 H          1 MOL1         0.3726
       4    H3      17.484603   20.016833   20.517658 H          1 MOL1         0.3726
       5    C1      19.518406   20.181154   21.103664 C.3        1 MOL1         0.0314
       6    H4      19.505993   21.271534   21.023315 H          1 MOL1         0.0999
       7    H5      19.886313   19.776924   20.157065 H          1 MOL1         0.0999
       8    C2      20.463255   19.764226   22.249679 C.3        1 MOL1        -0.1308
       9    H6      21.454920   20.197020   22.062346 H          1 MOL1         0.1025
      10    H7      20.108391   20.208544   23.189041 H          1 MOL1         0.1025
      11    C3      20.601614   18.231482   22.426069 C.3        1 MOL1        -0.1243
      12    H8      19.633122   17.794543   22.704926 H          1 MOL1         0.1025
      13    H9      21.278091   18.032019   23.268979 H          1 MOL1         0.1025
      14    C4      21.148336   17.523775   21.165100 C.3        1 MOL1        -0.2258
      15    H10     21.291518   16.452397   21.356455 H          1 MOL1         0.1036
      16    H11     22.118018   17.942883   20.866550 H          1 MOL1         0.1036
      17    H12     20.458399   17.619065   20.317247 H          1 MOL1         0.1036
@<TRIPOS>BOND
    1     1     2    1
    2     1     3    1
    3     1     4    1
    4     1     5    1
    5     5     6    1
    6     5     7    1
    7     5     8    1
    8     8     9    1
    9     8    10    1
   10     8    11    1
   11    11    12    1
   12    11    13    1
   13    11    14    1
   14    14    15    1
   15    14    16    1
   16    14    17    1
@<TRIPOS>SUBSTRUCTURE
       1 MOL1            1 RESIDUE      1      MOL     
@<SCITEGIC>MOL_PROPERTY
VConf Rank
SciTegic.value.IntegerValue
648

@<SCITEGIC>MOL_PROPERTY
Conf_Id
SciTegic.value.IntegerValue
43

@<SCITEGIC>MOL_PROPERTY
Delta U+W
SciTegic.value.DoubleValue
0.642

@<SCITEGIC>MOL_PROPERTY
U+W
SciTegic.value.DoubleValue
-15.222

@<SCITEGIC>MOL_PROPERTY
Grad RMS
SciTegic.value.DoubleValue
0.000000

@<SCITEGIC>MOL_PROPERTY
U
SciTegic.value.DoubleValue
45.697

@<SCITEGIC>MOL_PROPERTY
W
SciTegic.value.DoubleValue
-60.919

@<SCITEGIC>MOL_PROPERTY
W(PB)
SciTegic.value.DoubleValue
-62.631

@<SCITEGIC>MOL_PROPERTY
W(SA)
SciTegic.value.DoubleValue
1.712

@<SCITEGIC>MOL_PROPERTY
Valence
SciTegic.value.DoubleValue
1.262

@<SCITEGIC>MOL_PROPERTY
Coulomb
SciTegic.value.DoubleValue
44.179

@<SCITEGIC>MOL_PROPERTY
VdW
SciTegic.value.DoubleValue
0.255

@<SCITEGIC>MOL_PROPERTY
VdW6
SciTegic.value.DoubleValue
-3.552

@<SCITEGIC>MOL_PROPERTY
VdW12
SciTegic.value.DoubleValue
3.807

@<SCITEGIC>MOL_PROPERTY
Bond
SciTegic.value.DoubleValue
0.125

@<SCITEGIC>MOL_PROPERTY
Angle
SciTegic.value.DoubleValue
0.616

@<SCITEGIC>MOL_PROPERTY
Pdih
SciTegic.value.DoubleValue
0.521

@<SCITEGIC>MOL_PROPERTY
Idih
SciTegic.value.DoubleValue
0.000

@<SCITEGIC>MOL_PROPERTY
Tether
SciTegic.value.DoubleValue
0.000

@<TRIPOS>MOLECULE
guest-1_confgen4.mol2 : confsearch ligand conformer 649
          17          16           1
SMALL
USER_CHARGES
 
@<TRIPOS>ATOM
       1    N1      22.138061   17.932410   22.347024 N.4        1 MOL1        -0.5891
       2    H1      22.164419   18.309904   23.299127 H          1 MOL1         0.3726
       3    H2      22.779225   18.497257   21.781734 H          1 MOL1         0.3726
       4    H3      22.535500   16.988497   22.391512 H          1 MOL1         0.3726
       5    C1      20.733563   17.926229   21.777197 C.3        1 MOL1         0.0314
       6    H4      20.115513   17.283101   22.409593 H          1 MOL1         0.0999
       7    H5      20.776619   17.484523   20.777914 H          1 MOL1         0.0999
       8    C2      20.105585   19.329550   21.695990 C.3        1 MOL1        -0.1308
       9    H6      20.078194   19.776109   22.698899 H          1 MOL1         0.1025
      10    H7      20.736938   19.976789   21.072720 H          1 MOL1         0.1025
      11    C3      18.677059   19.278379   21.110999 C.3        1 MOL1        -0.1243
      12    H8      18.045453   18.627984   21.732599 H          1 MOL1         0.1025
      13    H9      18.703394   18.828492   20.108385 H          1 MOL1         0.1025
      14    C4      18.040646   20.682588   21.026554 C.3        1 MOL1        -0.2258
      15    H10     17.027123   20.624588   20.608874 H          1 MOL1         0.1036
      16    H11     18.632095   21.346659   20.382812 H          1 MOL1         0.1036
      17    H12     17.969020   21.144587   22.019848 H          1 MOL1         0.1036
@<TRIPOS>BOND
    1     1     2    1
    2     1     3    1
    3     1     4    1
    4     1     5    1
    5     5     6    1
    6     5     7    1
    7     5     8    1
    8     8     9    1
    9     8    10    1
   10     8    11    1
   11    11    12    1
   12    11    13    1
   13    11    14    1
   14    14    15    1
   15    14    16    1
   16    14    17    1
@<TRIPOS>SUBSTRUCTURE
       1 MOL1            1 RESIDUE      1      MOL     
@<SCITEGIC>MOL_PROPERTY
VConf Rank
SciTegic.value.IntegerValue
649

@<SCITEGIC>MOL_PROPERTY
Conf_Id
SciTegic.value.IntegerValue
7

@<SCITEGIC>MOL_PROPERTY
Delta U+W
SciTegic.value.DoubleValue
0.000

@<SCITEGIC>MOL_PROPERTY
U+W
SciTegic.value.DoubleValue
-15.865

@<SCITEGIC>MOL_PROPERTY
Grad RMS
SciTegic.value.DoubleValue
0.000000

@<SCITEGIC>MOL_PROPERTY
U
SciTegic.value.DoubleValue
44.664

@<SCITEGIC>MOL_PROPERTY
W
SciTegic.value.DoubleValue
-60.529

@<SCITEGIC>MOL_PROPERTY
W(PB)
SciTegic.value.DoubleValue
-62.309

@<SCITEGIC>MOL_PROPERTY
W(SA)
SciTegic.value.DoubleValue
1.780

@<SCITEGIC>MOL_PROPERTY
Valence
SciTegic.value.DoubleValue
0.872

@<SCITEGIC>MOL_PROPERTY
Coulomb
SciTegic.value.DoubleValue
43.648

@<SCITEGIC>MOL_PROPERTY
VdW
SciTegic.value.DoubleValue
0.144

@<SCITEGIC>MOL_PROPERTY
VdW6
SciTegic.value.DoubleValue
-2.370

@<SCITEGIC>MOL_PROPERTY
VdW12
SciTegic.value.DoubleValue
2.515

@<SCITEGIC>MOL_PROPERTY
Bond
SciTegic.value.DoubleValue
0.080

@<SCITEGIC>MOL_PROPERTY
Angle
SciTegic.value.DoubleValue
0.376

@<SCITEGIC>MOL_PROPERTY
Pdih
SciTegic.value.DoubleValue
0.416

@<SCITEGIC>MOL_PROPERTY
Idih
SciTegic.value.DoubleValue
0.000

@<SCITEGIC>MOL_PROPERTY
Tether
SciTegic.value.DoubleValue
0.000

@<TRIPOS>MOLECULE
guest-1_confgen4.mol2 : confsearch ligand conformer 650
          17          16           1
SMALL
USER_CHARGES
 
@<TRIPOS>ATOM
       1    N1      22.042734   18.332737   20.739850 N.4        1 MOL1        -0.5891
       2    H1      21.867159   17.787866   19.890181 H          1 MOL1         0.3726
       3    H2      22.271057   17.665557   21.483076 H          1 MOL1         0.3726
       4    H3      22.888637   18.885595   20.567692 H          1 MOL1         0.3726
       5    C1      20.861600   19.208904   21.106746 C.3        1 MOL1         0.0314
       6    H4      20.694679   19.912054   20.286304 H          1 MOL1         0.0999
       7    H5      21.131583   19.780352   21.998594 H          1 MOL1         0.0999
       8    C2      19.572074   18.408725   21.372817 C.3        1 MOL1        -0.1308
       9    H6      19.331982   17.807825   20.485600 H          1 MOL1         0.1025
      10    H7      19.740246   17.701330   22.195738 H          1 MOL1         0.1025
      11    C3      18.365310   19.316290   21.707560 C.3        1 MOL1        -0.1243
      12    H8      17.465885   18.692326   21.805968 H          1 MOL1         0.1025
      13    H9      18.174783   20.002772   20.870527 H          1 MOL1         0.1025
      14    C4      18.561507   20.126733   23.009346 C.3        1 MOL1        -0.2258
      15    H10     18.759772   19.463641   23.861476 H          1 MOL1         0.1036
      16    H11     17.659499   20.708094   23.240449 H          1 MOL1         0.1036
      17    H12     19.396874   20.832972   22.922874 H          1 MOL1         0.1036
@<TRIPOS>BOND
    1     1     2    1
    2     1     3    1
    3     1     4    1
    4     1     5    1
    5     5     6    1
    6     5     7    1
    7     5     8    1
    8     8     9    1
    9     8    10    1
   10     8    11    1
   11    11    12    1
   12    11    13    1
   13    11    14    1
   14    14    15    1
   15    14    16    1
   16    14    17    1
@<TRIPOS>SUBSTRUCTURE
       1 MOL1            1 RESIDUE      1      MOL     
@<SCITEGIC>MOL_PROPERTY
VConf Rank
SciTegic.value.IntegerValue
650

@<SCITEGIC>MOL_PROPERTY
Conf_Id
SciTegic.value.IntegerValue
36

@<SCITEGIC>MOL_PROPERTY
Delta U+W
SciTegic.value.DoubleValue
0.275

@<SCITEGIC>MOL_PROPERTY
U+W
SciTegic.value.DoubleValue
-15.590

@<SCITEGIC>MOL_PROPERTY
Grad RMS
SciTegic.value.DoubleValue
0.000000

@<SCITEGIC>MOL_PROPERTY
U
SciTegic.value.DoubleValue
45.174

@<SCITEGIC>MOL_PROPERTY
W
SciTegic.value.DoubleValue
-60.765

@<SCITEGIC>MOL_PROPERTY
W(PB)
SciTegic.value.DoubleValue
-62.518

@<SCITEGIC>MOL_PROPERTY
W(SA)
SciTegic.value.DoubleValue
1.754

@<SCITEGIC>MOL_PROPERTY
Valence
SciTegic.value.DoubleValue
1.161

@<SCITEGIC>MOL_PROPERTY
Coulomb
SciTegic.value.DoubleValue
43.789

@<SCITEGIC>MOL_PROPERTY
VdW
SciTegic.value.DoubleValue
0.224

@<SCITEGIC>MOL_PROPERTY
VdW6
SciTegic.value.DoubleValue
-2.897

@<SCITEGIC>MOL_PROPERTY
VdW12
SciTegic.value.DoubleValue
3.121

@<SCITEGIC>MOL_PROPERTY
Bond
SciTegic.value.DoubleValue
0.100

@<SCITEGIC>MOL_PROPERTY
Angle
SciTegic.value.DoubleValue
0.500

@<SCITEGIC>MOL_PROPERTY
Pdih
SciTegic.value.DoubleValue
0.561

@<SCITEGIC>MOL_PROPERTY
Idih
SciTegic.value.DoubleValue
0.000

@<SCITEGIC>MOL_PROPERTY
Tether
SciTegic.value.DoubleValue
0.000

@<TRIPOS>MOLECULE
guest-1_confgen4.mol2 : confsearch ligand conformer 651
          17          16           1
SMALL
USER_CHARGES
 
@<TRIPOS>ATOM
       1    N1      20.830209   20.451520   22.319786 N.4        1 MOL1        -0.5891
       2    H1      21.007704   19.604265   22.865222 H          1 MOL1         0.3726
       3    H2      20.123152   20.993119   22.825966 H          1 MOL1         0.3726
       4    H3      21.692998   21.004952   22.331244 H          1 MOL1         0.3726
       5    C1      20.386515   20.127531   20.906210 C.3        1 MOL1         0.0314
       6    H4      21.203396   19.611522   20.394602 H          1 MOL1         0.0999
       7    H5      20.217922   21.080643   20.397593 H          1 MOL1         0.0999
       8    C2      19.099965   19.279233   20.823794 C.3        1 MOL1        -0.1308
       9    H6      18.353247   19.659496   21.533400 H          1 MOL1         0.1025
      10    H7      18.667105   19.423563   19.824971 H          1 MOL1         0.1025
      11    C3      19.317935   17.758970   21.033541 C.3        1 MOL1        -0.1243
      12    H8      20.018873   17.378309   20.277364 H          1 MOL1         0.1025
      13    H9      18.364324   17.244168   20.850249 H          1 MOL1         0.1025
      14    C4      19.821960   17.374132   22.443059 C.3        1 MOL1        -0.2258
      15    H10     20.860432   17.688759   22.598816 H          1 MOL1         0.1036
      16    H11     19.792498   16.284490   22.573322 H          1 MOL1         0.1036
      17    H12     19.194964   17.820045   23.226124 H          1 MOL1         0.1036
@<TRIPOS>BOND
    1     1     2    1
    2     1     3    1
    3     1     4    1
    4     1     5    1
    5     5     6    1
    6     5     7    1
    7     5     8    1
    8     8     9    1
    9     8    10    1
   10     8    11    1
   11    11    12    1
   12    11    13    1
   13    11    14    1
   14    14    15    1
   15    14    16    1
   16    14    17    1
@<TRIPOS>SUBSTRUCTURE
       1 MOL1            1 RESIDUE      1      MOL     
@<SCITEGIC>MOL_PROPERTY
VConf Rank
SciTegic.value.IntegerValue
651

@<SCITEGIC>MOL_PROPERTY
Conf_Id
SciTegic.value.IntegerValue
19

@<SCITEGIC>MOL_PROPERTY
Delta U+W
SciTegic.value.DoubleValue
2.662

@<SCITEGIC>MOL_PROPERTY
U+W
SciTegic.value.DoubleValue
-13.203

@<SCITEGIC>MOL_PROPERTY
Grad RMS
SciTegic.value.DoubleValue
0.000000

@<SCITEGIC>MOL_PROPERTY
U
SciTegic.value.DoubleValue
47.423

@<SCITEGIC>MOL_PROPERTY
W
SciTegic.value.DoubleValue
-60.626

@<SCITEGIC>MOL_PROPERTY
W(PB)
SciTegic.value.DoubleValue
-62.328

@<SCITEGIC>MOL_PROPERTY
W(SA)
SciTegic.value.DoubleValue
1.702

@<SCITEGIC>MOL_PROPERTY
Valence
SciTegic.value.DoubleValue
2.414

@<SCITEGIC>MOL_PROPERTY
Coulomb
SciTegic.value.DoubleValue
44.831

@<SCITEGIC>MOL_PROPERTY
VdW
SciTegic.value.DoubleValue
0.178

@<SCITEGIC>MOL_PROPERTY
VdW6
SciTegic.value.DoubleValue
-3.743

@<SCITEGIC>MOL_PROPERTY
VdW12
SciTegic.value.DoubleValue
3.921

@<SCITEGIC>MOL_PROPERTY
Bond
SciTegic.value.DoubleValue
0.138

@<SCITEGIC>MOL_PROPERTY
Angle
SciTegic.value.DoubleValue
0.941

@<SCITEGIC>MOL_PROPERTY
Pdih
SciTegic.value.DoubleValue
1.335

@<SCITEGIC>MOL_PROPERTY
Idih
SciTegic.value.DoubleValue
0.000

@<SCITEGIC>MOL_PROPERTY
Tether
SciTegic.value.DoubleValue
0.000

@<TRIPOS>MOLECULE
guest-1_confgen4.mol2 : confsearch ligand conformer 652
          17          16           1
SMALL
USER_CHARGES
 
@<TRIPOS>ATOM
       1    N1      20.391663   20.471175   22.698963 N.4        1 MOL1        -0.5891
       2    H1      20.081704   21.242787   23.298432 H          1 MOL1         0.3726
       3    H2      21.397054   20.597492   22.548256 H          1 MOL1         0.3726
       4    H3      20.273804   19.607050   23.233979 H          1 MOL1         0.3726
       5    C1      19.626351   20.430992   21.390253 C.3        1 MOL1         0.0314
       6    H4      19.806935   21.383601   20.884819 H          1 MOL1         0.0999
       7    H5      18.558182   20.364262   21.613552 H          1 MOL1         0.0999
       8    C2      20.036582   19.277591   20.450579 C.3        1 MOL1        -0.1308
       9    H6      19.729157   19.549893   19.432155 H          1 MOL1         0.1025
      10    H7      21.130595   19.188169   20.421107 H          1 MOL1         0.1025
      11    C3      19.392850   17.909714   20.792963 C.3        1 MOL1        -0.1243
      12    H8      19.666265   17.192125   20.006642 H          1 MOL1         0.1025
      13    H9      18.297831   17.997220   20.756936 H          1 MOL1         0.1025
      14    C4      19.818268   17.327539   22.160066 C.3        1 MOL1        -0.2258
      15    H10     20.910921   17.315165   22.265463 H          1 MOL1         0.1036
      16    H11     19.462418   16.293916   22.260810 H          1 MOL1         0.1036
      17    H12     19.388633   17.898155   22.991626 H          1 MOL1         0.1036
@<TRIPOS>BOND
    1     1     2    1
    2     1     3    1
    3     1     4    1
    4     1     5    1
    5     5     6    1
    6     5     7    1
    7     5     8    1
    8     8     9    1
    9     8    10    1
   10     8    11    1
   11    11    12    1
   12    11    13    1
   13    11    14    1
   14    14    15    1
   15    14    16    1
   16    14    17    1
@<TRIPOS>SUBSTRUCTURE
       1 MOL1            1 RESIDUE      1      MOL     
@<SCITEGIC>MOL_PROPERTY
VConf Rank
SciTegic.value.IntegerValue
652

@<SCITEGIC>MOL_PROPERTY
Conf_Id
SciTegic.value.IntegerValue
44

@<SCITEGIC>MOL_PROPERTY
Delta U+W
SciTegic.value.DoubleValue
2.712

@<SCITEGIC>MOL_PROPERTY
U+W
SciTegic.value.DoubleValue
-13.153

@<SCITEGIC>MOL_PROPERTY
Grad RMS
SciTegic.value.DoubleValue
0.000000

@<SCITEGIC>MOL_PROPERTY
U
SciTegic.value.DoubleValue
47.423

@<SCITEGIC>MOL_PROPERTY
W
SciTegic.value.DoubleValue
-60.576

@<SCITEGIC>MOL_PROPERTY
W(PB)
SciTegic.value.DoubleValue
-62.262

@<SCITEGIC>MOL_PROPERTY
W(SA)
SciTegic.value.DoubleValue
1.687

@<SCITEGIC>MOL_PROPERTY
Valence
SciTegic.value.DoubleValue
2.414

@<SCITEGIC>MOL_PROPERTY
Coulomb
SciTegic.value.DoubleValue
44.831

@<SCITEGIC>MOL_PROPERTY
VdW
SciTegic.value.DoubleValue
0.178

@<SCITEGIC>MOL_PROPERTY
VdW6
SciTegic.value.DoubleValue
-3.743

@<SCITEGIC>MOL_PROPERTY
VdW12
SciTegic.value.DoubleValue
3.922

@<SCITEGIC>MOL_PROPERTY
Bond
SciTegic.value.DoubleValue
0.138

@<SCITEGIC>MOL_PROPERTY
Angle
SciTegic.value.DoubleValue
0.941

@<SCITEGIC>MOL_PROPERTY
Pdih
SciTegic.value.DoubleValue
1.335

@<SCITEGIC>MOL_PROPERTY
Idih
SciTegic.value.DoubleValue
0.000

@<SCITEGIC>MOL_PROPERTY
Tether
SciTegic.value.DoubleValue
0.000

@<TRIPOS>MOLECULE
guest-1_confgen4.mol2 : confsearch ligand conformer 653
          17          16           1
SMALL
USER_CHARGES
 
@<TRIPOS>ATOM
       1    N1      18.356033   20.263561   21.539308 N.4        1 MOL1        -0.5891
       2    H1      17.988824   19.307975   21.560751 H          1 MOL1         0.3726
       3    H2      18.199119   20.627166   20.594561 H          1 MOL1         0.3726
       4    H3      17.775190   20.821602   22.173248 H          1 MOL1         0.3726
       5    C1      19.821179   20.311262   21.927805 C.3        1 MOL1         0.0314
       6    H4      19.913246   19.939104   22.951439 H          1 MOL1         0.0999
       7    H5      20.133812   21.358991   21.919856 H          1 MOL1         0.0999
       8    C2      20.739988   19.497034   20.993598 C.3        1 MOL1        -0.1308
       9    H6      20.671415   19.904216   19.976125 H          1 MOL1         0.1025
      10    H7      21.781097   19.641944   21.311243 H          1 MOL1         0.1025
      11    C3      20.423220   17.981027   20.963004 C.3        1 MOL1        -0.1243
      12    H8      21.114518   17.489201   20.264348 H          1 MOL1         0.1025
      13    H9      19.415183   17.813968   20.559759 H          1 MOL1         0.1025
      14    C4      20.547459   17.308403   22.349344 C.3        1 MOL1        -0.2258
      15    H10     21.548422   17.460706   22.773543 H          1 MOL1         0.1036
      16    H11     20.379179   16.226653   22.268924 H          1 MOL1         0.1036
      17    H12     19.810759   17.705952   23.058692 H          1 MOL1         0.1036
@<TRIPOS>BOND
    1     1     2    1
    2     1     3    1
    3     1     4    1
    4     1     5    1
    5     5     6    1
    6     5     7    1
    7     5     8    1
    8     8     9    1
    9     8    10    1
   10     8    11    1
   11    11    12    1
   12    11    13    1
   13    11    14    1
   14    14    15    1
   15    14    16    1
   16    14    17    1
@<TRIPOS>SUBSTRUCTURE
       1 MOL1            1 RESIDUE      1      MOL     
@<SCITEGIC>MOL_PROPERTY
VConf Rank
SciTegic.value.IntegerValue
653

@<SCITEGIC>MOL_PROPERTY
Conf_Id
SciTegic.value.IntegerValue
1

@<SCITEGIC>MOL_PROPERTY
Delta U+W
SciTegic.value.DoubleValue
0.685

@<SCITEGIC>MOL_PROPERTY
U+W
SciTegic.value.DoubleValue
-15.179

@<SCITEGIC>MOL_PROPERTY
Grad RMS
SciTegic.value.DoubleValue
0.000000

@<SCITEGIC>MOL_PROPERTY
U
SciTegic.value.DoubleValue
45.697

@<SCITEGIC>MOL_PROPERTY
W
SciTegic.value.DoubleValue
-60.876

@<SCITEGIC>MOL_PROPERTY
W(PB)
SciTegic.value.DoubleValue
-62.586

@<SCITEGIC>MOL_PROPERTY
W(SA)
SciTegic.value.DoubleValue
1.710

@<SCITEGIC>MOL_PROPERTY
Valence
SciTegic.value.DoubleValue
1.263

@<SCITEGIC>MOL_PROPERTY
Coulomb
SciTegic.value.DoubleValue
44.179

@<SCITEGIC>MOL_PROPERTY
VdW
SciTegic.value.DoubleValue
0.255

@<SCITEGIC>MOL_PROPERTY
VdW6
SciTegic.value.DoubleValue
-3.552

@<SCITEGIC>MOL_PROPERTY
VdW12
SciTegic.value.DoubleValue
3.807

@<SCITEGIC>MOL_PROPERTY
Bond
SciTegic.value.DoubleValue
0.125

@<SCITEGIC>MOL_PROPERTY
Angle
SciTegic.value.DoubleValue
0.616

@<SCITEGIC>MOL_PROPERTY
Pdih
SciTegic.value.DoubleValue
0.521

@<SCITEGIC>MOL_PROPERTY
Idih
SciTegic.value.DoubleValue
0.000

@<SCITEGIC>MOL_PROPERTY
Tether
SciTegic.value.DoubleValue
0.000

@<TRIPOS>MOLECULE
guest-1_confgen4.mol2 : confsearch ligand conformer 654
          17          16           1
SMALL
USER_CHARGES
 
@<TRIPOS>ATOM
       1    N1      18.215127   19.254994   20.614970 N.4        1 MOL1        -0.5891
       2    H1      17.588176   18.458604   20.763540 H          1 MOL1         0.3726
       3    H2      18.919379   18.962476   19.931662 H          1 MOL1         0.3726
       4    H3      17.658404   19.993691   20.173322 H          1 MOL1         0.3726
       5    C1      18.849702   19.724752   21.909767 C.3        1 MOL1         0.0314
       6    H4      18.046201   20.055077   22.573702 H          1 MOL1         0.0999
       7    H5      19.479183   20.589662   21.685067 H          1 MOL1         0.0999
       8    C2      19.687573   18.642301   22.621238 C.3        1 MOL1        -0.1308
       9    H6      20.051447   19.049546   23.573893 H          1 MOL1         0.1025
      10    H7      19.037995   17.795375   22.879138 H          1 MOL1         0.1025
      11    C3      20.892491   18.132118   21.792116 C.3        1 MOL1        -0.1243
      12    H8      20.538991   17.638603   20.876619 H          1 MOL1         0.1025
      13    H9      21.417478   17.358633   22.370055 H          1 MOL1         0.1025
      14    C4      21.893567   19.251955   21.426591 C.3        1 MOL1        -0.2258
      15    H10     22.760864   18.835612   20.897988 H          1 MOL1         0.1036
      16    H11     22.262758   19.760447   22.326703 H          1 MOL1         0.1036
      17    H12     21.436651   20.004193   20.771370 H          1 MOL1         0.1036
@<TRIPOS>BOND
    1     1     2    1
    2     1     3    1
    3     1     4    1
    4     1     5    1
    5     5     6    1
    6     5     7    1
    7     5     8    1
    8     8     9    1
    9     8    10    1
   10     8    11    1
   11    11    12    1
   12    11    13    1
   13    11    14    1
   14    14    15    1
   15    14    16    1
   16    14    17    1
@<TRIPOS>SUBSTRUCTURE
       1 MOL1            1 RESIDUE      1      MOL     
@<SCITEGIC>MOL_PROPERTY
VConf Rank
SciTegic.value.IntegerValue
654

@<SCITEGIC>MOL_PROPERTY
Conf_Id
SciTegic.value.IntegerValue
43

@<SCITEGIC>MOL_PROPERTY
Delta U+W
SciTegic.value.DoubleValue
0.642

@<SCITEGIC>MOL_PROPERTY
U+W
SciTegic.value.DoubleValue
-15.222

@<SCITEGIC>MOL_PROPERTY
Grad RMS
SciTegic.value.DoubleValue
0.000000

@<SCITEGIC>MOL_PROPERTY
U
SciTegic.value.DoubleValue
45.697

@<SCITEGIC>MOL_PROPERTY
W
SciTegic.value.DoubleValue
-60.919

@<SCITEGIC>MOL_PROPERTY
W(PB)
SciTegic.value.DoubleValue
-62.631

@<SCITEGIC>MOL_PROPERTY
W(SA)
SciTegic.value.DoubleValue
1.712

@<SCITEGIC>MOL_PROPERTY
Valence
SciTegic.value.DoubleValue
1.262

@<SCITEGIC>MOL_PROPERTY
Coulomb
SciTegic.value.DoubleValue
44.179

@<SCITEGIC>MOL_PROPERTY
VdW
SciTegic.value.DoubleValue
0.255

@<SCITEGIC>MOL_PROPERTY
VdW6
SciTegic.value.DoubleValue
-3.552

@<SCITEGIC>MOL_PROPERTY
VdW12
SciTegic.value.DoubleValue
3.807

@<SCITEGIC>MOL_PROPERTY
Bond
SciTegic.value.DoubleValue
0.125

@<SCITEGIC>MOL_PROPERTY
Angle
SciTegic.value.DoubleValue
0.616

@<SCITEGIC>MOL_PROPERTY
Pdih
SciTegic.value.DoubleValue
0.521

@<SCITEGIC>MOL_PROPERTY
Idih
SciTegic.value.DoubleValue
0.000

@<SCITEGIC>MOL_PROPERTY
Tether
SciTegic.value.DoubleValue
0.000

@<TRIPOS>MOLECULE
guest-1_confgen4.mol2 : confsearch ligand conformer 655
          17          16           1
SMALL
USER_CHARGES
 
@<TRIPOS>ATOM
       1    N1      19.449190   16.635683   20.932877 N.4        1 MOL1        -0.5891
       2    H1      20.132969   16.182831   21.546934 H          1 MOL1         0.3726
       3    H2      19.861649   16.667838   19.995572 H          1 MOL1         0.3726
       4    H3      18.639270   16.009574   20.878784 H          1 MOL1         0.3726
       5    C1      19.063561   18.014175   21.431282 C.3        1 MOL1         0.0314
       6    H4      18.604608   17.900510   22.417165 H          1 MOL1         0.0999
       7    H5      18.312813   18.422036   20.748969 H          1 MOL1         0.0999
       8    C2      20.257634   18.981491   21.524827 C.3        1 MOL1        -0.1308
       9    H6      21.016184   18.561382   22.198698 H          1 MOL1         0.1025
      10    H7      20.725296   19.081230   20.536225 H          1 MOL1         0.1025
      11    C3      19.821831   20.372290   22.035978 C.3        1 MOL1        -0.1243
      12    H8      19.350626   20.272698   23.024094 H          1 MOL1         0.1025
      13    H9      19.060155   20.791945   21.363622 H          1 MOL1         0.1025
      14    C4      21.014511   21.348075   22.132484 C.3        1 MOL1        -0.2258
      15    H10     20.684246   22.329391   22.497166 H          1 MOL1         0.1036
      16    H11     21.485537   21.494941   21.151784 H          1 MOL1         0.1036
      17    H12     21.778327   20.971556   22.825322 H          1 MOL1         0.1036
@<TRIPOS>BOND
    1     1     2    1
    2     1     3    1
    3     1     4    1
    4     1     5    1
    5     5     6    1
    6     5     7    1
    7     5     8    1
    8     8     9    1
    9     8    10    1
   10     8    11    1
   11    11    12    1
   12    11    13    1
   13    11    14    1
   14    14    15    1
   15    14    16    1
   16    14    17    1
@<TRIPOS>SUBSTRUCTURE
       1 MOL1            1 RESIDUE      1      MOL     
@<SCITEGIC>MOL_PROPERTY
VConf Rank
SciTegic.value.IntegerValue
655

@<SCITEGIC>MOL_PROPERTY
Conf_Id
SciTegic.value.IntegerValue
7

@<SCITEGIC>MOL_PROPERTY
Delta U+W
SciTegic.value.DoubleValue
0.000

@<SCITEGIC>MOL_PROPERTY
U+W
SciTegic.value.DoubleValue
-15.865

@<SCITEGIC>MOL_PROPERTY
Grad RMS
SciTegic.value.DoubleValue
0.000000

@<SCITEGIC>MOL_PROPERTY
U
SciTegic.value.DoubleValue
44.664

@<SCITEGIC>MOL_PROPERTY
W
SciTegic.value.DoubleValue
-60.529

@<SCITEGIC>MOL_PROPERTY
W(PB)
SciTegic.value.DoubleValue
-62.309

@<SCITEGIC>MOL_PROPERTY
W(SA)
SciTegic.value.DoubleValue
1.780

@<SCITEGIC>MOL_PROPERTY
Valence
SciTegic.value.DoubleValue
0.872

@<SCITEGIC>MOL_PROPERTY
Coulomb
SciTegic.value.DoubleValue
43.648

@<SCITEGIC>MOL_PROPERTY
VdW
SciTegic.value.DoubleValue
0.144

@<SCITEGIC>MOL_PROPERTY
VdW6
SciTegic.value.DoubleValue
-2.370

@<SCITEGIC>MOL_PROPERTY
VdW12
SciTegic.value.DoubleValue
2.515

@<SCITEGIC>MOL_PROPERTY
Bond
SciTegic.value.DoubleValue
0.080

@<SCITEGIC>MOL_PROPERTY
Angle
SciTegic.value.DoubleValue
0.376

@<SCITEGIC>MOL_PROPERTY
Pdih
SciTegic.value.DoubleValue
0.416

@<SCITEGIC>MOL_PROPERTY
Idih
SciTegic.value.DoubleValue
0.000

@<SCITEGIC>MOL_PROPERTY
Tether
SciTegic.value.DoubleValue
0.000

@<TRIPOS>MOLECULE
guest-1_confgen4.mol2 : confsearch ligand conformer 656
          17          16           1
SMALL
USER_CHARGES
 
@<TRIPOS>ATOM
       1    N1      21.031255   17.035790   21.014638 N.4        1 MOL1        -0.5891
       2    H1      21.817974   16.884332   21.653217 H          1 MOL1         0.3726
       3    H2      21.424808   17.345290   20.120785 H          1 MOL1         0.3726
       4    H3      20.603710   16.118998   20.848683 H          1 MOL1         0.3726
       5    C1      20.032476   18.031343   21.570219 C.3        1 MOL1         0.0314
       6    H4      19.633188   17.624583   22.503237 H          1 MOL1         0.0999
       7    H5      19.210883   18.117825   20.854437 H          1 MOL1         0.0999
       8    C2      20.642859   19.421749   21.831295 C.3        1 MOL1        -0.1308
       9    H6      21.491995   19.318394   22.519890 H          1 MOL1         0.1025
      10    H7      21.045385   19.829552   20.894514 H          1 MOL1         0.1025
      11    C3      19.623977   20.416726   22.434541 C.3        1 MOL1        -0.1243
      12    H8      20.140591   21.357805   22.670041 H          1 MOL1         0.1025
      13    H9      19.244855   20.025368   23.389155 H          1 MOL1         0.1025
      14    C4      18.438432   20.715568   21.488425 C.3        1 MOL1        -0.2258
      15    H10     18.790851   21.102824   20.523563 H          1 MOL1         0.1036
      16    H11     17.774634   21.470333   21.929685 H          1 MOL1         0.1036
      17    H12     17.837508   19.817292   21.298475 H          1 MOL1         0.1036
@<TRIPOS>BOND
    1     1     2    1
    2     1     3    1
    3     1     4    1
    4     1     5    1
    5     5     6    1
    6     5     7    1
    7     5     8    1
    8     8     9    1
    9     8    10    1
   10     8    11    1
   11    11    12    1
   12    11    13    1
   13    11    14    1
   14    14    15    1
   15    14    16    1
   16    14    17    1
@<TRIPOS>SUBSTRUCTURE
       1 MOL1            1 RESIDUE      1      MOL     
@<SCITEGIC>MOL_PROPERTY
VConf Rank
SciTegic.value.IntegerValue
656

@<SCITEGIC>MOL_PROPERTY
Conf_Id
SciTegic.value.IntegerValue
36

@<SCITEGIC>MOL_PROPERTY
Delta U+W
SciTegic.value.DoubleValue
0.275

@<SCITEGIC>MOL_PROPERTY
U+W
SciTegic.value.DoubleValue
-15.590

@<SCITEGIC>MOL_PROPERTY
Grad RMS
SciTegic.value.DoubleValue
0.000000

@<SCITEGIC>MOL_PROPERTY
U
SciTegic.value.DoubleValue
45.174

@<SCITEGIC>MOL_PROPERTY
W
SciTegic.value.DoubleValue
-60.765

@<SCITEGIC>MOL_PROPERTY
W(PB)
SciTegic.value.DoubleValue
-62.518

@<SCITEGIC>MOL_PROPERTY
W(SA)
SciTegic.value.DoubleValue
1.754

@<SCITEGIC>MOL_PROPERTY
Valence
SciTegic.value.DoubleValue
1.161

@<SCITEGIC>MOL_PROPERTY
Coulomb
SciTegic.value.DoubleValue
43.789

@<SCITEGIC>MOL_PROPERTY
VdW
SciTegic.value.DoubleValue
0.224

@<SCITEGIC>MOL_PROPERTY
VdW6
SciTegic.value.DoubleValue
-2.897

@<SCITEGIC>MOL_PROPERTY
VdW12
SciTegic.value.DoubleValue
3.121

@<SCITEGIC>MOL_PROPERTY
Bond
SciTegic.value.DoubleValue
0.100

@<SCITEGIC>MOL_PROPERTY
Angle
SciTegic.value.DoubleValue
0.500

@<SCITEGIC>MOL_PROPERTY
Pdih
SciTegic.value.DoubleValue
0.561

@<SCITEGIC>MOL_PROPERTY
Idih
SciTegic.value.DoubleValue
0.000

@<SCITEGIC>MOL_PROPERTY
Tether
SciTegic.value.DoubleValue
0.000

@<TRIPOS>MOLECULE
guest-1_confgen4.mol2 : confsearch ligand conformer 657
          17          16           1
SMALL
USER_CHARGES
 
@<TRIPOS>ATOM
       1    N1      20.252797   17.715914   20.282500 N.4        1 MOL1        -0.5891
       2    H1      19.999803   17.275175   21.170524 H          1 MOL1         0.3726
       3    H2      21.270952   17.648073   20.191741 H          1 MOL1         0.3726
       4    H3      19.848876   17.142998   19.534544 H          1 MOL1         0.3726
       5    C1      19.775350   19.153669   20.212249 C.3        1 MOL1         0.0314
       6    H4      18.682564   19.159581   20.245211 H          1 MOL1         0.0999
       7    H5      20.086126   19.546700   19.240404 H          1 MOL1         0.0999
       8    C2      20.336422   20.063594   21.325284 C.3        1 MOL1        -0.1308
       9    H6      21.409433   19.873600   21.460476 H          1 MOL1         0.1025
      10    H7      20.255752   21.103041   20.980482 H          1 MOL1         0.1025
      11    C3      19.594128   19.952457   22.681512 C.3        1 MOL1        -0.1243
      12    H8      18.533632   20.206514   22.544305 H          1 MOL1         0.1025
      13    H9      20.002733   20.711940   23.362846 H          1 MOL1         0.1025
      14    C4      19.708546   18.569024   23.361148 C.3        1 MOL1        -0.2258
      15    H10     19.133375   17.807178   22.822220 H          1 MOL1         0.1036
      16    H11     19.308069   18.612496   24.382365 H          1 MOL1         0.1036
      17    H12     20.754639   18.242762   23.427451 H          1 MOL1         0.1036
@<TRIPOS>BOND
    1     1     2    1
    2     1     3    1
    3     1     4    1
    4     1     5    1
    5     5     6    1
    6     5     7    1
    7     5     8    1
    8     8     9    1
    9     8    10    1
   10     8    11    1
   11    11    12    1
   12    11    13    1
   13    11    14    1
   14    14    15    1
   15    14    16    1
   16    14    17    1
@<TRIPOS>SUBSTRUCTURE
       1 MOL1            1 RESIDUE      1      MOL     
@<SCITEGIC>MOL_PROPERTY
VConf Rank
SciTegic.value.IntegerValue
657

@<SCITEGIC>MOL_PROPERTY
Conf_Id
SciTegic.value.IntegerValue
19

@<SCITEGIC>MOL_PROPERTY
Delta U+W
SciTegic.value.DoubleValue
2.662

@<SCITEGIC>MOL_PROPERTY
U+W
SciTegic.value.DoubleValue
-13.203

@<SCITEGIC>MOL_PROPERTY
Grad RMS
SciTegic.value.DoubleValue
0.000000

@<SCITEGIC>MOL_PROPERTY
U
SciTegic.value.DoubleValue
47.423

@<SCITEGIC>MOL_PROPERTY
W
SciTegic.value.DoubleValue
-60.626

@<SCITEGIC>MOL_PROPERTY
W(PB)
SciTegic.value.DoubleValue
-62.328

@<SCITEGIC>MOL_PROPERTY
W(SA)
SciTegic.value.DoubleValue
1.702

@<SCITEGIC>MOL_PROPERTY
Valence
SciTegic.value.DoubleValue
2.414

@<SCITEGIC>MOL_PROPERTY
Coulomb
SciTegic.value.DoubleValue
44.831

@<SCITEGIC>MOL_PROPERTY
VdW
SciTegic.value.DoubleValue
0.178

@<SCITEGIC>MOL_PROPERTY
VdW6
SciTegic.value.DoubleValue
-3.743

@<SCITEGIC>MOL_PROPERTY
VdW12
SciTegic.value.DoubleValue
3.921

@<SCITEGIC>MOL_PROPERTY
Bond
SciTegic.value.DoubleValue
0.138

@<SCITEGIC>MOL_PROPERTY
Angle
SciTegic.value.DoubleValue
0.941

@<SCITEGIC>MOL_PROPERTY
Pdih
SciTegic.value.DoubleValue
1.335

@<SCITEGIC>MOL_PROPERTY
Idih
SciTegic.value.DoubleValue
0.000

@<SCITEGIC>MOL_PROPERTY
Tether
SciTegic.value.DoubleValue
0.000

@<TRIPOS>MOLECULE
guest-1_confgen4.mol2 : confsearch ligand conformer 658
          17          16           1
SMALL
USER_CHARGES
 
@<TRIPOS>ATOM
       1    N1      20.301069   18.292692   23.239607 N.4        1 MOL1        -0.5891
       2    H1      20.914347   18.313676   24.060749 H          1 MOL1         0.3726
       3    H2      19.776309   17.413937   23.283154 H          1 MOL1         0.3726
       4    H3      19.624794   19.052740   23.348338 H          1 MOL1         0.3726
       5    C1      21.084449   18.417764   21.947047 C.3        1 MOL1         0.0314
       6    H4      21.776746   17.572270   21.909600 H          1 MOL1         0.0999
       7    H5      21.675423   19.336762   21.985705 H          1 MOL1         0.0999
       8    C2      20.212692   18.410534   20.673626 C.3        1 MOL1        -0.1308
       9    H6      20.854452   18.123422   19.830087 H          1 MOL1         0.1025
      10    H7      19.445481   17.628506   20.748106 H          1 MOL1         0.1025
      11    C3      19.560545   19.774958   20.333398 C.3        1 MOL1        -0.1243
      12    H8      19.055059   19.684142   19.361685 H          1 MOL1         0.1025
      13    H9      20.342834   20.535206   20.198976 H          1 MOL1         0.1025
      14    C4      18.534454   20.270863   21.377474 C.3        1 MOL1        -0.2258
      15    H10     17.791178   19.495749   21.605274 H          1 MOL1         0.1036
      16    H11     17.995071   21.146973   20.994522 H          1 MOL1         0.1036
      17    H12     19.024308   20.576652   22.309255 H          1 MOL1         0.1036
@<TRIPOS>BOND
    1     1     2    1
    2     1     3    1
    3     1     4    1
    4     1     5    1
    5     5     6    1
    6     5     7    1
    7     5     8    1
    8     8     9    1
    9     8    10    1
   10     8    11    1
   11    11    12    1
   12    11    13    1
   13    11    14    1
   14    14    15    1
   15    14    16    1
   16    14    17    1
@<TRIPOS>SUBSTRUCTURE
       1 MOL1            1 RESIDUE      1      MOL     
@<SCITEGIC>MOL_PROPERTY
VConf Rank
SciTegic.value.IntegerValue
658

@<SCITEGIC>MOL_PROPERTY
Conf_Id
SciTegic.value.IntegerValue
44

@<SCITEGIC>MOL_PROPERTY
Delta U+W
SciTegic.value.DoubleValue
2.712

@<SCITEGIC>MOL_PROPERTY
U+W
SciTegic.value.DoubleValue
-13.153

@<SCITEGIC>MOL_PROPERTY
Grad RMS
SciTegic.value.DoubleValue
0.000000

@<SCITEGIC>MOL_PROPERTY
U
SciTegic.value.DoubleValue
47.423

@<SCITEGIC>MOL_PROPERTY
W
SciTegic.value.DoubleValue
-60.576

@<SCITEGIC>MOL_PROPERTY
W(PB)
SciTegic.value.DoubleValue
-62.262

@<SCITEGIC>MOL_PROPERTY
W(SA)
SciTegic.value.DoubleValue
1.687

@<SCITEGIC>MOL_PROPERTY
Valence
SciTegic.value.DoubleValue
2.414

@<SCITEGIC>MOL_PROPERTY
Coulomb
SciTegic.value.DoubleValue
44.831

@<SCITEGIC>MOL_PROPERTY
VdW
SciTegic.value.DoubleValue
0.178

@<SCITEGIC>MOL_PROPERTY
VdW6
SciTegic.value.DoubleValue
-3.743

@<SCITEGIC>MOL_PROPERTY
VdW12
SciTegic.value.DoubleValue
3.922

@<SCITEGIC>MOL_PROPERTY
Bond
SciTegic.value.DoubleValue
0.138

@<SCITEGIC>MOL_PROPERTY
Angle
SciTegic.value.DoubleValue
0.941

@<SCITEGIC>MOL_PROPERTY
Pdih
SciTegic.value.DoubleValue
1.335

@<SCITEGIC>MOL_PROPERTY
Idih
SciTegic.value.DoubleValue
0.000

@<SCITEGIC>MOL_PROPERTY
Tether
SciTegic.value.DoubleValue
0.000

@<TRIPOS>MOLECULE
guest-1_confgen4.mol2 : confsearch ligand conformer 659
          17          16           1
SMALL
USER_CHARGES
 
@<TRIPOS>ATOM
       1    N1      18.079890   18.479037   21.098007 N.4        1 MOL1        -0.5891
       2    H1      18.728467   17.910486   20.546152 H          1 MOL1         0.3726
       3    H2      17.644199   19.149234   20.457392 H          1 MOL1         0.3726
       4    H3      17.336717   17.853159   21.424563 H          1 MOL1         0.3726
       5    C1      18.780908   19.171735   22.250657 C.3        1 MOL1         0.0314
       6    H4      19.195484   18.402566   22.907399 H          1 MOL1         0.0999
       7    H5      18.025969   19.726387   22.814542 H          1 MOL1         0.0999
       8    C2      19.900127   20.137272   21.809063 C.3        1 MOL1        -0.1308
       9    H6      19.467057   20.928963   21.183423 H          1 MOL1         0.1025
      10    H7      20.303785   20.637685   22.699260 H          1 MOL1         0.1025
      11    C3      21.057681   19.451120   21.041716 C.3        1 MOL1        -0.1243
      12    H8      21.795130   20.214742   20.757191 H          1 MOL1         0.1025
      13    H9      20.685757   19.023632   20.100663 H          1 MOL1         0.1025
      14    C4      21.765251   18.353177   21.868556 C.3        1 MOL1        -0.2258
      15    H10     22.147422   18.756776   22.815192 H          1 MOL1         0.1036
      16    H11     22.617164   17.941151   21.312276 H          1 MOL1         0.1036
      17    H12     21.087635   17.521641   22.099496 H          1 MOL1         0.1036
@<TRIPOS>BOND
    1     1     2    1
    2     1     3    1
    3     1     4    1
    4     1     5    1
    5     5     6    1
    6     5     7    1
    7     5     8    1
    8     8     9    1
    9     8    10    1
   10     8    11    1
   11    11    12    1
   12    11    13    1
   13    11    14    1
   14    14    15    1
   15    14    16    1
   16    14    17    1
@<TRIPOS>SUBSTRUCTURE
       1 MOL1            1 RESIDUE      1      MOL     
@<SCITEGIC>MOL_PROPERTY
VConf Rank
SciTegic.value.IntegerValue
659

@<SCITEGIC>MOL_PROPERTY
Conf_Id
SciTegic.value.IntegerValue
1

@<SCITEGIC>MOL_PROPERTY
Delta U+W
SciTegic.value.DoubleValue
0.685

@<SCITEGIC>MOL_PROPERTY
U+W
SciTegic.value.DoubleValue
-15.179

@<SCITEGIC>MOL_PROPERTY
Grad RMS
SciTegic.value.DoubleValue
0.000000

@<SCITEGIC>MOL_PROPERTY
U
SciTegic.value.DoubleValue
45.697

@<SCITEGIC>MOL_PROPERTY
W
SciTegic.value.DoubleValue
-60.876

@<SCITEGIC>MOL_PROPERTY
W(PB)
SciTegic.value.DoubleValue
-62.586

@<SCITEGIC>MOL_PROPERTY
W(SA)
SciTegic.value.DoubleValue
1.710

@<SCITEGIC>MOL_PROPERTY
Valence
SciTegic.value.DoubleValue
1.263

@<SCITEGIC>MOL_PROPERTY
Coulomb
SciTegic.value.DoubleValue
44.179

@<SCITEGIC>MOL_PROPERTY
VdW
SciTegic.value.DoubleValue
0.255

@<SCITEGIC>MOL_PROPERTY
VdW6
SciTegic.value.DoubleValue
-3.552

@<SCITEGIC>MOL_PROPERTY
VdW12
SciTegic.value.DoubleValue
3.807

@<SCITEGIC>MOL_PROPERTY
Bond
SciTegic.value.DoubleValue
0.125

@<SCITEGIC>MOL_PROPERTY
Angle
SciTegic.value.DoubleValue
0.616

@<SCITEGIC>MOL_PROPERTY
Pdih
SciTegic.value.DoubleValue
0.521

@<SCITEGIC>MOL_PROPERTY
Idih
SciTegic.value.DoubleValue
0.000

@<SCITEGIC>MOL_PROPERTY
Tether
SciTegic.value.DoubleValue
0.000

@<TRIPOS>MOLECULE
guest-1_confgen4.mol2 : confsearch ligand conformer 660
          17          16           1
SMALL
USER_CHARGES
 
@<TRIPOS>ATOM
       1    N1      19.820626   21.011646   21.682994 N.4        1 MOL1        -0.5891
       2    H1      19.408769   21.402720   20.830461 H          1 MOL1         0.3726
       3    H2      20.792020   20.770553   21.466852 H          1 MOL1         0.3726
       4    H3      19.846772   21.767603   22.374740 H          1 MOL1         0.3726
       5    C1      19.042973   19.811634   22.188054 C.3        1 MOL1         0.0314
       6    H4      18.032192   20.149001   22.433092 H          1 MOL1         0.0999
       7    H5      19.515932   19.464267   23.110253 H          1 MOL1         0.0999
       8    C2      18.962432   18.650618   21.175396 C.3        1 MOL1        -0.1308
       9    H6      18.331069   17.858289   21.598949 H          1 MOL1         0.1025
      10    H7      18.449625   18.998117   20.268742 H          1 MOL1         0.1025
      11    C3      20.339060   18.053687   20.790523 C.3        1 MOL1        -0.1243
      12    H8      20.950146   18.811347   20.281426 H          1 MOL1         0.1025
      13    H9      20.183406   17.248290   20.059077 H          1 MOL1         0.1025
      14    C4      21.114114   17.488247   22.002697 C.3        1 MOL1        -0.2258
      15    H10     22.050721   17.018360   21.675679 H          1 MOL1         0.1036
      16    H11     20.523459   16.726768   22.528382 H          1 MOL1         0.1036
      17    H12     21.372670   18.276893   22.720426 H          1 MOL1         0.1036
@<TRIPOS>BOND
    1     1     2    1
    2     1     3    1
    3     1     4    1
    4     1     5    1
    5     5     6    1
    6     5     7    1
    7     5     8    1
    8     8     9    1
    9     8    10    1
   10     8    11    1
   11    11    12    1
   12    11    13    1
   13    11    14    1
   14    14    15    1
   15    14    16    1
   16    14    17    1
@<TRIPOS>SUBSTRUCTURE
       1 MOL1            1 RESIDUE      1      MOL     
@<SCITEGIC>MOL_PROPERTY
VConf Rank
SciTegic.value.IntegerValue
660

@<SCITEGIC>MOL_PROPERTY
Conf_Id
SciTegic.value.IntegerValue
43

@<SCITEGIC>MOL_PROPERTY
Delta U+W
SciTegic.value.DoubleValue
0.642

@<SCITEGIC>MOL_PROPERTY
U+W
SciTegic.value.DoubleValue
-15.222

@<SCITEGIC>MOL_PROPERTY
Grad RMS
SciTegic.value.DoubleValue
0.000000

@<SCITEGIC>MOL_PROPERTY
U
SciTegic.value.DoubleValue
45.697

@<SCITEGIC>MOL_PROPERTY
W
SciTegic.value.DoubleValue
-60.919

@<SCITEGIC>MOL_PROPERTY
W(PB)
SciTegic.value.DoubleValue
-62.631

@<SCITEGIC>MOL_PROPERTY
W(SA)
SciTegic.value.DoubleValue
1.712

@<SCITEGIC>MOL_PROPERTY
Valence
SciTegic.value.DoubleValue
1.262

@<SCITEGIC>MOL_PROPERTY
Coulomb
SciTegic.value.DoubleValue
44.179

@<SCITEGIC>MOL_PROPERTY
VdW
SciTegic.value.DoubleValue
0.255

@<SCITEGIC>MOL_PROPERTY
VdW6
SciTegic.value.DoubleValue
-3.552

@<SCITEGIC>MOL_PROPERTY
VdW12
SciTegic.value.DoubleValue
3.807

@<SCITEGIC>MOL_PROPERTY
Bond
SciTegic.value.DoubleValue
0.125

@<SCITEGIC>MOL_PROPERTY
Angle
SciTegic.value.DoubleValue
0.616

@<SCITEGIC>MOL_PROPERTY
Pdih
SciTegic.value.DoubleValue
0.521

@<SCITEGIC>MOL_PROPERTY
Idih
SciTegic.value.DoubleValue
0.000

@<SCITEGIC>MOL_PROPERTY
Tether
SciTegic.value.DoubleValue
0.000

@<TRIPOS>MOLECULE
guest-1_confgen4.mol2 : confsearch ligand conformer 661
          17          16           1
SMALL
USER_CHARGES
 
@<TRIPOS>ATOM
       1    N1      18.313523   20.331848   20.094479 N.4        1 MOL1        -0.5891
       2    H1      18.565490   21.279134   20.392570 H          1 MOL1         0.3726
       3    H2      17.454182   20.078743   20.591638 H          1 MOL1         0.3726
       4    H3      18.074290   20.388284   19.099245 H          1 MOL1         0.3726
       5    C1      19.430723   19.339958   20.350165 C.3        1 MOL1         0.0314
       6    H4      20.300925   19.654015   19.767378 H          1 MOL1         0.0999
       7    H5      19.105926   18.363208   19.981398 H          1 MOL1         0.0999
       8    C2      19.815881   19.229858   21.836703 C.3        1 MOL1        -0.1308
       9    H6      20.126701   20.215692   22.207530 H          1 MOL1         0.1025
      10    H7      18.935863   18.929185   22.420788 H          1 MOL1         0.1025
      11    C3      20.955887   18.210474   22.052952 C.3        1 MOL1        -0.1243
      12    H8      21.835963   18.509116   21.465920 H          1 MOL1         0.1025
      13    H9      20.646562   17.224170   21.678990 H          1 MOL1         0.1025
      14    C4      21.347703   18.094702   23.541922 C.3        1 MOL1        -0.2258
      15    H10     22.158303   17.366357   23.674173 H          1 MOL1         0.1036
      16    H11     20.495877   17.763895   24.150336 H          1 MOL1         0.1036
      17    H12     21.694610   19.059008   23.935593 H          1 MOL1         0.1036
@<TRIPOS>BOND
    1     1     2    1
    2     1     3    1
    3     1     4    1
    4     1     5    1
    5     5     6    1
    6     5     7    1
    7     5     8    1
    8     8     9    1
    9     8    10    1
   10     8    11    1
   11    11    12    1
   12    11    13    1
   13    11    14    1
   14    14    15    1
   15    14    16    1
   16    14    17    1
@<TRIPOS>SUBSTRUCTURE
       1 MOL1            1 RESIDUE      1      MOL     
@<SCITEGIC>MOL_PROPERTY
VConf Rank
SciTegic.value.IntegerValue
661

@<SCITEGIC>MOL_PROPERTY
Conf_Id
SciTegic.value.IntegerValue
7

@<SCITEGIC>MOL_PROPERTY
Delta U+W
SciTegic.value.DoubleValue
0.000

@<SCITEGIC>MOL_PROPERTY
U+W
SciTegic.value.DoubleValue
-15.865

@<SCITEGIC>MOL_PROPERTY
Grad RMS
SciTegic.value.DoubleValue
0.000000

@<SCITEGIC>MOL_PROPERTY
U
SciTegic.value.DoubleValue
44.664

@<SCITEGIC>MOL_PROPERTY
W
SciTegic.value.DoubleValue
-60.529

@<SCITEGIC>MOL_PROPERTY
W(PB)
SciTegic.value.DoubleValue
-62.309

@<SCITEGIC>MOL_PROPERTY
W(SA)
SciTegic.value.DoubleValue
1.780

@<SCITEGIC>MOL_PROPERTY
Valence
SciTegic.value.DoubleValue
0.872

@<SCITEGIC>MOL_PROPERTY
Coulomb
SciTegic.value.DoubleValue
43.648

@<SCITEGIC>MOL_PROPERTY
VdW
SciTegic.value.DoubleValue
0.144

@<SCITEGIC>MOL_PROPERTY
VdW6
SciTegic.value.DoubleValue
-2.370

@<SCITEGIC>MOL_PROPERTY
VdW12
SciTegic.value.DoubleValue
2.515

@<SCITEGIC>MOL_PROPERTY
Bond
SciTegic.value.DoubleValue
0.080

@<SCITEGIC>MOL_PROPERTY
Angle
SciTegic.value.DoubleValue
0.376

@<SCITEGIC>MOL_PROPERTY
Pdih
SciTegic.value.DoubleValue
0.416

@<SCITEGIC>MOL_PROPERTY
Idih
SciTegic.value.DoubleValue
0.000

@<SCITEGIC>MOL_PROPERTY
Tether
SciTegic.value.DoubleValue
0.000

@<TRIPOS>MOLECULE
guest-1_confgen4.mol2 : confsearch ligand conformer 662
          17          16           1
SMALL
USER_CHARGES
 
@<TRIPOS>ATOM
       1    N1      17.716105   18.453241   20.899545 N.4        1 MOL1        -0.5891
       2    H1      17.070820   18.556075   21.688646 H          1 MOL1         0.3726
       3    H2      17.892444   17.450642   20.784013 H          1 MOL1         0.3726
       4    H3      17.212390   18.763977   20.062552 H          1 MOL1         0.3726
       5    C1      18.997917   19.234639   21.108668 C.3        1 MOL1         0.0314
       6    H4      18.738308   20.293329   21.193440 H          1 MOL1         0.0999
       7    H5      19.619684   19.104156   20.219163 H          1 MOL1         0.0999
       8    C2      19.781007   18.792166   22.359645 C.3        1 MOL1        -0.1308
       9    H6      19.134417   18.889278   23.241897 H          1 MOL1         0.1025
      10    H7      20.040288   17.728428   22.275246 H          1 MOL1         0.1025
      11    C3      21.066130   19.622994   22.583676 C.3        1 MOL1        -0.1243
      12    H8      21.531516   19.312492   23.529713 H          1 MOL1         0.1025
      13    H9      20.805177   20.684204   22.701647 H          1 MOL1         0.1025
      14    C4      22.094618   19.465255   21.440309 C.3        1 MOL1        -0.2258
      15    H10     22.368123   18.411729   21.297473 H          1 MOL1         0.1036
      16    H11     23.012957   20.021362   21.669235 H          1 MOL1         0.1036
      17    H12     21.703481   19.849806   20.489929 H          1 MOL1         0.1036
@<TRIPOS>BOND
    1     1     2    1
    2     1     3    1
    3     1     4    1
    4     1     5    1
    5     5     6    1
    6     5     7    1
    7     5     8    1
    8     8     9    1
    9     8    10    1
   10     8    11    1
   11    11    12    1
   12    11    13    1
   13    11    14    1
   14    14    15    1
   15    14    16    1
   16    14    17    1
@<TRIPOS>SUBSTRUCTURE
       1 MOL1            1 RESIDUE      1      MOL     
@<SCITEGIC>MOL_PROPERTY
VConf Rank
SciTegic.value.IntegerValue
662

@<SCITEGIC>MOL_PROPERTY
Conf_Id
SciTegic.value.IntegerValue
36

@<SCITEGIC>MOL_PROPERTY
Delta U+W
SciTegic.value.DoubleValue
0.275

@<SCITEGIC>MOL_PROPERTY
U+W
SciTegic.value.DoubleValue
-15.590

@<SCITEGIC>MOL_PROPERTY
Grad RMS
SciTegic.value.DoubleValue
0.000000

@<SCITEGIC>MOL_PROPERTY
U
SciTegic.value.DoubleValue
45.174

@<SCITEGIC>MOL_PROPERTY
W
SciTegic.value.DoubleValue
-60.765

@<SCITEGIC>MOL_PROPERTY
W(PB)
SciTegic.value.DoubleValue
-62.518

@<SCITEGIC>MOL_PROPERTY
W(SA)
SciTegic.value.DoubleValue
1.754

@<SCITEGIC>MOL_PROPERTY
Valence
SciTegic.value.DoubleValue
1.161

@<SCITEGIC>MOL_PROPERTY
Coulomb
SciTegic.value.DoubleValue
43.789

@<SCITEGIC>MOL_PROPERTY
VdW
SciTegic.value.DoubleValue
0.224

@<SCITEGIC>MOL_PROPERTY
VdW6
SciTegic.value.DoubleValue
-2.897

@<SCITEGIC>MOL_PROPERTY
VdW12
SciTegic.value.DoubleValue
3.121

@<SCITEGIC>MOL_PROPERTY
Bond
SciTegic.value.DoubleValue
0.100

@<SCITEGIC>MOL_PROPERTY
Angle
SciTegic.value.DoubleValue
0.500

@<SCITEGIC>MOL_PROPERTY
Pdih
SciTegic.value.DoubleValue
0.561

@<SCITEGIC>MOL_PROPERTY
Idih
SciTegic.value.DoubleValue
0.000

@<SCITEGIC>MOL_PROPERTY
Tether
SciTegic.value.DoubleValue
0.000

@<TRIPOS>MOLECULE
guest-1_confgen4.mol2 : confsearch ligand conformer 663
          17          16           1
SMALL
USER_CHARGES
 
@<TRIPOS>ATOM
       1    N1      19.807051   17.402346   20.639397 N.4        1 MOL1        -0.5891
       2    H1      20.044172   18.188683   20.029239 H          1 MOL1         0.3726
       3    H2      18.804951   17.223288   20.524447 H          1 MOL1         0.3726
       4    H3      20.299490   16.579365   20.277417 H          1 MOL1         0.3726
       5    C1      20.166861   17.684324   22.085444 C.3        1 MOL1         0.0314
       6    H4      21.251674   17.799160   22.158211 H          1 MOL1         0.0999
       7    H5      19.881035   16.801688   22.664058 H          1 MOL1         0.0999
       8    C2      19.469102   18.924544   22.682604 C.3        1 MOL1        -0.1308
       9    H6      18.409546   18.934483   22.394555 H          1 MOL1         0.1025
      10    H7      19.483005   18.822641   23.775887 H          1 MOL1         0.1025
      11    C3      20.138728   20.275024   22.321341 C.3        1 MOL1        -0.1243
      12    H8      21.180635   20.276216   22.671272 H          1 MOL1         0.1025
      13    H9      19.629991   21.073679   22.879306 H          1 MOL1         0.1025
      14    C4      20.100498   20.624870   20.816340 C.3        1 MOL1        -0.2258
      15    H10     20.766946   19.976662   20.235523 H          1 MOL1         0.1036
      16    H11     20.436521   21.657780   20.657150 H          1 MOL1         0.1036
      17    H12     19.082992   20.539964   20.413071 H          1 MOL1         0.1036
@<TRIPOS>BOND
    1     1     2    1
    2     1     3    1
    3     1     4    1
    4     1     5    1
    5     5     6    1
    6     5     7    1
    7     5     8    1
    8     8     9    1
    9     8    10    1
   10     8    11    1
   11    11    12    1
   12    11    13    1
   13    11    14    1
   14    14    15    1
   15    14    16    1
   16    14    17    1
@<TRIPOS>SUBSTRUCTURE
       1 MOL1            1 RESIDUE      1      MOL     
@<SCITEGIC>MOL_PROPERTY
VConf Rank
SciTegic.value.IntegerValue
663

@<SCITEGIC>MOL_PROPERTY
Conf_Id
SciTegic.value.IntegerValue
19

@<SCITEGIC>MOL_PROPERTY
Delta U+W
SciTegic.value.DoubleValue
2.662

@<SCITEGIC>MOL_PROPERTY
U+W
SciTegic.value.DoubleValue
-13.203

@<SCITEGIC>MOL_PROPERTY
Grad RMS
SciTegic.value.DoubleValue
0.000000

@<SCITEGIC>MOL_PROPERTY
U
SciTegic.value.DoubleValue
47.423

@<SCITEGIC>MOL_PROPERTY
W
SciTegic.value.DoubleValue
-60.626

@<SCITEGIC>MOL_PROPERTY
W(PB)
SciTegic.value.DoubleValue
-62.328

@<SCITEGIC>MOL_PROPERTY
W(SA)
SciTegic.value.DoubleValue
1.702

@<SCITEGIC>MOL_PROPERTY
Valence
SciTegic.value.DoubleValue
2.414

@<SCITEGIC>MOL_PROPERTY
Coulomb
SciTegic.value.DoubleValue
44.831

@<SCITEGIC>MOL_PROPERTY
VdW
SciTegic.value.DoubleValue
0.178

@<SCITEGIC>MOL_PROPERTY
VdW6
SciTegic.value.DoubleValue
-3.743

@<SCITEGIC>MOL_PROPERTY
VdW12
SciTegic.value.DoubleValue
3.921

@<SCITEGIC>MOL_PROPERTY
Bond
SciTegic.value.DoubleValue
0.138

@<SCITEGIC>MOL_PROPERTY
Angle
SciTegic.value.DoubleValue
0.941

@<SCITEGIC>MOL_PROPERTY
Pdih
SciTegic.value.DoubleValue
1.335

@<SCITEGIC>MOL_PROPERTY
Idih
SciTegic.value.DoubleValue
0.000

@<SCITEGIC>MOL_PROPERTY
Tether
SciTegic.value.DoubleValue
0.000

@<TRIPOS>MOLECULE
guest-1_confgen4.mol2 : confsearch ligand conformer 664
          17          16           1
SMALL
USER_CHARGES
 
@<TRIPOS>ATOM
       1    N1      20.863643   20.186409   22.706435 N.4        1 MOL1        -0.5891
       2    H1      21.788384   20.565316   22.934705 H          1 MOL1         0.3726
       3    H2      20.239396   20.441721   23.477546 H          1 MOL1         0.3726
       4    H3      20.531799   20.680722   21.874343 H          1 MOL1         0.3726
       5    C1      20.906605   18.686055   22.489341 C.3        1 MOL1         0.0314
       6    H4      21.267036   18.238527   23.419581 H          1 MOL1         0.0999
       7    H5      21.636454   18.468587   21.704911 H          1 MOL1         0.0999
       8    C2      19.544770   18.058609   22.124201 C.3        1 MOL1        -0.1308
       9    H6      19.594868   16.987757   22.362134 H          1 MOL1         0.1025
      10    H7      18.756092   18.473099   22.766006 H          1 MOL1         0.1025
      11    C3      19.152990   18.197125   20.630874 C.3        1 MOL1        -0.1243
      12    H8      18.227156   17.629421   20.461951 H          1 MOL1         0.1025
      13    H9      19.919395   17.722406   20.002154 H          1 MOL1         0.1025
      14    C4      18.930473   19.652639   20.160934 C.3        1 MOL1        -0.2258
      15    H10     18.239481   20.185406   20.827149 H          1 MOL1         0.1036
      16    H11     18.496511   19.664789   19.152626 H          1 MOL1         0.1036
      17    H12     19.874160   20.208258   20.111710 H          1 MOL1         0.1036
@<TRIPOS>BOND
    1     1     2    1
    2     1     3    1
    3     1     4    1
    4     1     5    1
    5     5     6    1
    6     5     7    1
    7     5     8    1
    8     8     9    1
    9     8    10    1
   10     8    11    1
   11    11    12    1
   12    11    13    1
   13    11    14    1
   14    14    15    1
   15    14    16    1
   16    14    17    1
@<TRIPOS>SUBSTRUCTURE
       1 MOL1            1 RESIDUE      1      MOL     
@<SCITEGIC>MOL_PROPERTY
VConf Rank
SciTegic.value.IntegerValue
664

@<SCITEGIC>MOL_PROPERTY
Conf_Id
SciTegic.value.IntegerValue
44

@<SCITEGIC>MOL_PROPERTY
Delta U+W
SciTegic.value.DoubleValue
2.712

@<SCITEGIC>MOL_PROPERTY
U+W
SciTegic.value.DoubleValue
-13.153

@<SCITEGIC>MOL_PROPERTY
Grad RMS
SciTegic.value.DoubleValue
0.000000

@<SCITEGIC>MOL_PROPERTY
U
SciTegic.value.DoubleValue
47.423

@<SCITEGIC>MOL_PROPERTY
W
SciTegic.value.DoubleValue
-60.576

@<SCITEGIC>MOL_PROPERTY
W(PB)
SciTegic.value.DoubleValue
-62.262

@<SCITEGIC>MOL_PROPERTY
W(SA)
SciTegic.value.DoubleValue
1.687

@<SCITEGIC>MOL_PROPERTY
Valence
SciTegic.value.DoubleValue
2.414

@<SCITEGIC>MOL_PROPERTY
Coulomb
SciTegic.value.DoubleValue
44.831

@<SCITEGIC>MOL_PROPERTY
VdW
SciTegic.value.DoubleValue
0.178

@<SCITEGIC>MOL_PROPERTY
VdW6
SciTegic.value.DoubleValue
-3.743

@<SCITEGIC>MOL_PROPERTY
VdW12
SciTegic.value.DoubleValue
3.922

@<SCITEGIC>MOL_PROPERTY
Bond
SciTegic.value.DoubleValue
0.138

@<SCITEGIC>MOL_PROPERTY
Angle
SciTegic.value.DoubleValue
0.941

@<SCITEGIC>MOL_PROPERTY
Pdih
SciTegic.value.DoubleValue
1.335

@<SCITEGIC>MOL_PROPERTY
Idih
SciTegic.value.DoubleValue
0.000

@<SCITEGIC>MOL_PROPERTY
Tether
SciTegic.value.DoubleValue
0.000

@<TRIPOS>MOLECULE
guest-1_confgen4.mol2 : confsearch ligand conformer 665
          17          16           1
SMALL
USER_CHARGES
 
@<TRIPOS>ATOM
       1    N1      18.379078   19.863115   22.545542 N.4        1 MOL1        -0.5891
       2    H1      18.129697   18.887972   22.357520 H          1 MOL1         0.3726
       3    H2      17.818909   20.445728   21.916136 H          1 MOL1         0.3726
       4    H3      18.068982   20.072603   23.499808 H          1 MOL1         0.3726
       5    C1      19.865456   20.106924   22.369204 C.3        1 MOL1         0.0314
       6    H4      20.399918   19.479305   23.087013 H          1 MOL1         0.0999
       7    H5      20.063601   21.152275   22.621232 H          1 MOL1         0.0999
       8    C2      20.378846   19.819232   20.943166 C.3        1 MOL1        -0.1308
       9    H6      19.865495   20.482699   20.234624 H          1 MOL1         0.1025
      10    H7      21.443439   20.083696   20.893115 H          1 MOL1         0.1025
      11    C3      20.197901   18.348035   20.493283 C.3        1 MOL1        -0.1243
      12    H8      20.576409   18.242872   19.466844 H          1 MOL1         0.1025
      13    H9      19.129817   18.095148   20.449712 H          1 MOL1         0.1025
      14    C4      20.934592   17.340857   21.405793 C.3        1 MOL1        -0.2258
      15    H10     22.006045   17.572330   21.464758 H          1 MOL1         0.1036
      16    H11     20.833775   16.320641   21.013410 H          1 MOL1         0.1036
      17    H12     20.526684   17.345333   22.424390 H          1 MOL1         0.1036
@<TRIPOS>BOND
    1     1     2    1
    2     1     3    1
    3     1     4    1
    4     1     5    1
    5     5     6    1
    6     5     7    1
    7     5     8    1
    8     8     9    1
    9     8    10    1
   10     8    11    1
   11    11    12    1
   12    11    13    1
   13    11    14    1
   14    14    15    1
   15    14    16    1
   16    14    17    1
@<TRIPOS>SUBSTRUCTURE
       1 MOL1            1 RESIDUE      1      MOL     
@<SCITEGIC>MOL_PROPERTY
VConf Rank
SciTegic.value.IntegerValue
665

@<SCITEGIC>MOL_PROPERTY
Conf_Id
SciTegic.value.IntegerValue
1

@<SCITEGIC>MOL_PROPERTY
Delta U+W
SciTegic.value.DoubleValue
0.685

@<SCITEGIC>MOL_PROPERTY
U+W
SciTegic.value.DoubleValue
-15.179

@<SCITEGIC>MOL_PROPERTY
Grad RMS
SciTegic.value.DoubleValue
0.000000

@<SCITEGIC>MOL_PROPERTY
U
SciTegic.value.DoubleValue
45.697

@<SCITEGIC>MOL_PROPERTY
W
SciTegic.value.DoubleValue
-60.876

@<SCITEGIC>MOL_PROPERTY
W(PB)
SciTegic.value.DoubleValue
-62.586

@<SCITEGIC>MOL_PROPERTY
W(SA)
SciTegic.value.DoubleValue
1.710

@<SCITEGIC>MOL_PROPERTY
Valence
SciTegic.value.DoubleValue
1.263

@<SCITEGIC>MOL_PROPERTY
Coulomb
SciTegic.value.DoubleValue
44.179

@<SCITEGIC>MOL_PROPERTY
VdW
SciTegic.value.DoubleValue
0.255

@<SCITEGIC>MOL_PROPERTY
VdW6
SciTegic.value.DoubleValue
-3.552

@<SCITEGIC>MOL_PROPERTY
VdW12
SciTegic.value.DoubleValue
3.807

@<SCITEGIC>MOL_PROPERTY
Bond
SciTegic.value.DoubleValue
0.125

@<SCITEGIC>MOL_PROPERTY
Angle
SciTegic.value.DoubleValue
0.616

@<SCITEGIC>MOL_PROPERTY
Pdih
SciTegic.value.DoubleValue
0.521

@<SCITEGIC>MOL_PROPERTY
Idih
SciTegic.value.DoubleValue
0.000

@<SCITEGIC>MOL_PROPERTY
Tether
SciTegic.value.DoubleValue
0.000

@<TRIPOS>MOLECULE
guest-1_confgen4.mol2 : confsearch ligand conformer 666
          17          16           1
SMALL
USER_CHARGES
 
@<TRIPOS>ATOM
       1    N1      19.004163   17.816763   20.324674 N.4        1 MOL1        -0.5891
       2    H1      18.613490   18.332377   19.530385 H          1 MOL1         0.3726
       3    H2      18.371516   17.957239   21.117436 H          1 MOL1         0.3726
       4    H3      18.963810   16.821617   20.082346 H          1 MOL1         0.3726
       5    C1      20.417445   18.261648   20.648044 C.3        1 MOL1         0.0314
       6    H4      21.041358   18.048713   19.775732 H          1 MOL1         0.0999
       7    H5      20.782338   17.654537   21.480556 H          1 MOL1         0.0999
       8    C2      20.532884   19.757910   21.005527 C.3        1 MOL1        -0.1308
       9    H6      21.592459   20.001434   21.159801 H          1 MOL1         0.1025
      10    H7      20.202638   20.359728   20.148496 H          1 MOL1         0.1025
      11    C3      19.727493   20.169126   22.263225 C.3        1 MOL1        -0.1243
      12    H8      18.653435   20.017087   22.090201 H          1 MOL1         0.1025
      13    H9      19.857981   21.247598   22.429888 H          1 MOL1         0.1025
      14    C4      20.162590   19.407997   23.536477 C.3        1 MOL1        -0.2258
      15    H10     19.612905   19.776697   24.412192 H          1 MOL1         0.1036
      16    H11     21.234056   19.545576   23.731669 H          1 MOL1         0.1036
      17    H12     19.965427   18.331993   23.451091 H          1 MOL1         0.1036
@<TRIPOS>BOND
    1     1     2    1
    2     1     3    1
    3     1     4    1
    4     1     5    1
    5     5     6    1
    6     5     7    1
    7     5     8    1
    8     8     9    1
    9     8    10    1
   10     8    11    1
   11    11    12    1
   12    11    13    1
   13    11    14    1
   14    14    15    1
   15    14    16    1
   16    14    17    1
@<TRIPOS>SUBSTRUCTURE
       1 MOL1            1 RESIDUE      1      MOL     
@<SCITEGIC>MOL_PROPERTY
VConf Rank
SciTegic.value.IntegerValue
666

@<SCITEGIC>MOL_PROPERTY
Conf_Id
SciTegic.value.IntegerValue
43

@<SCITEGIC>MOL_PROPERTY
Delta U+W
SciTegic.value.DoubleValue
0.642

@<SCITEGIC>MOL_PROPERTY
U+W
SciTegic.value.DoubleValue
-15.222

@<SCITEGIC>MOL_PROPERTY
Grad RMS
SciTegic.value.DoubleValue
0.000000

@<SCITEGIC>MOL_PROPERTY
U
SciTegic.value.DoubleValue
45.697

@<SCITEGIC>MOL_PROPERTY
W
SciTegic.value.DoubleValue
-60.919

@<SCITEGIC>MOL_PROPERTY
W(PB)
SciTegic.value.DoubleValue
-62.631

@<SCITEGIC>MOL_PROPERTY
W(SA)
SciTegic.value.DoubleValue
1.712

@<SCITEGIC>MOL_PROPERTY
Valence
SciTegic.value.DoubleValue
1.262

@<SCITEGIC>MOL_PROPERTY
Coulomb
SciTegic.value.DoubleValue
44.179

@<SCITEGIC>MOL_PROPERTY
VdW
SciTegic.value.DoubleValue
0.255

@<SCITEGIC>MOL_PROPERTY
VdW6
SciTegic.value.DoubleValue
-3.552

@<SCITEGIC>MOL_PROPERTY
VdW12
SciTegic.value.DoubleValue
3.807

@<SCITEGIC>MOL_PROPERTY
Bond
SciTegic.value.DoubleValue
0.125

@<SCITEGIC>MOL_PROPERTY
Angle
SciTegic.value.DoubleValue
0.616

@<SCITEGIC>MOL_PROPERTY
Pdih
SciTegic.value.DoubleValue
0.521

@<SCITEGIC>MOL_PROPERTY
Idih
SciTegic.value.DoubleValue
0.000

@<SCITEGIC>MOL_PROPERTY
Tether
SciTegic.value.DoubleValue
0.000

@<TRIPOS>MOLECULE
guest-1_confgen4.mol2 : confsearch ligand conformer 667
          17          16           1
SMALL
USER_CHARGES
 
@<TRIPOS>ATOM
       1    N1      22.117071   18.199759   22.687596 N.4        1 MOL1        -0.5891
       2    H1      22.365465   17.517267   21.964961 H          1 MOL1         0.3726
       3    H2      21.681669   17.679673   23.455471 H          1 MOL1         0.3726
       4    H3      22.996977   18.581282   23.049694 H          1 MOL1         0.3726
       5    C1      21.208700   19.288610   22.152225 C.3        1 MOL1         0.0314
       6    H4      21.746828   19.818797   21.361755 H          1 MOL1         0.0999
       7    H5      21.011559   19.993467   22.964528 H          1 MOL1         0.0999
       8    C2      19.876416   18.750058   21.599736 C.3        1 MOL1        -0.1308
       9    H6      20.078755   18.031002   20.794746 H          1 MOL1         0.1025
      10    H7      19.345954   18.205205   22.392034 H          1 MOL1         0.1025
      11    C3      18.982134   19.890213   21.065110 C.3        1 MOL1        -0.1243
      12    H8      19.513879   20.438072   20.274272 H          1 MOL1         0.1025
      13    H9      18.781909   20.612021   21.869616 H          1 MOL1         0.1025
      14    C4      17.643823   19.357496   20.509149 C.3        1 MOL1        -0.2258
      15    H10     17.023653   20.182226   20.134638 H          1 MOL1         0.1036
      16    H11     17.072927   18.833935   21.287075 H          1 MOL1         0.1036
      17    H12     17.810689   18.658564   19.679175 H          1 MOL1         0.1036
@<TRIPOS>BOND
    1     1     2    1
    2     1     3    1
    3     1     4    1
    4     1     5    1
    5     5     6    1
    6     5     7    1
    7     5     8    1
    8     8     9    1
    9     8    10    1
   10     8    11    1
   11    11    12    1
   12    11    13    1
   13    11    14    1
   14    14    15    1
   15    14    16    1
   16    14    17    1
@<TRIPOS>SUBSTRUCTURE
       1 MOL1            1 RESIDUE      1      MOL     
@<SCITEGIC>MOL_PROPERTY
VConf Rank
SciTegic.value.IntegerValue
667

@<SCITEGIC>MOL_PROPERTY
Conf_Id
SciTegic.value.IntegerValue
7

@<SCITEGIC>MOL_PROPERTY
Delta U+W
SciTegic.value.DoubleValue
0.000

@<SCITEGIC>MOL_PROPERTY
U+W
SciTegic.value.DoubleValue
-15.865

@<SCITEGIC>MOL_PROPERTY
Grad RMS
SciTegic.value.DoubleValue
0.000000

@<SCITEGIC>MOL_PROPERTY
U
SciTegic.value.DoubleValue
44.664

@<SCITEGIC>MOL_PROPERTY
W
SciTegic.value.DoubleValue
-60.529

@<SCITEGIC>MOL_PROPERTY
W(PB)
SciTegic.value.DoubleValue
-62.309

@<SCITEGIC>MOL_PROPERTY
W(SA)
SciTegic.value.DoubleValue
1.780

@<SCITEGIC>MOL_PROPERTY
Valence
SciTegic.value.DoubleValue
0.872

@<SCITEGIC>MOL_PROPERTY
Coulomb
SciTegic.value.DoubleValue
43.648

@<SCITEGIC>MOL_PROPERTY
VdW
SciTegic.value.DoubleValue
0.144

@<SCITEGIC>MOL_PROPERTY
VdW6
SciTegic.value.DoubleValue
-2.370

@<SCITEGIC>MOL_PROPERTY
VdW12
SciTegic.value.DoubleValue
2.515

@<SCITEGIC>MOL_PROPERTY
Bond
SciTegic.value.DoubleValue
0.080

@<SCITEGIC>MOL_PROPERTY
Angle
SciTegic.value.DoubleValue
0.376

@<SCITEGIC>MOL_PROPERTY
Pdih
SciTegic.value.DoubleValue
0.416

@<SCITEGIC>MOL_PROPERTY
Idih
SciTegic.value.DoubleValue
0.000

@<SCITEGIC>MOL_PROPERTY
Tether
SciTegic.value.DoubleValue
0.000

@<TRIPOS>MOLECULE
guest-1_confgen4.mol2 : confsearch ligand conformer 668
          17          16           1
SMALL
USER_CHARGES
 
@<TRIPOS>ATOM
       1    N1      20.576218   20.618909   19.862656 N.4        1 MOL1        -0.5891
       2    H1      19.786759   21.238971   19.657898 H          1 MOL1         0.3726
       3    H2      20.629060   19.937370   19.099531 H          1 MOL1         0.3726
       4    H3      21.424659   21.191612   19.807859 H          1 MOL1         0.3726
       5    C1      20.435415   19.947774   21.214362 C.3        1 MOL1         0.0314
       6    H4      20.415767   20.728922   21.979104 H          1 MOL1         0.0999
       7    H5      21.322953   19.330808   21.377055 H          1 MOL1         0.0999
       8    C2      19.169156   19.077727   21.330824 C.3        1 MOL1        -0.1308
       9    H6      18.286363   19.697990   21.126309 H          1 MOL1         0.1025
      10    H7      19.188102   18.294201   20.561657 H          1 MOL1         0.1025
      11    C3      19.016719   18.430208   22.727064 C.3        1 MOL1        -0.1243
      12    H8      18.058968   17.892647   22.768582 H          1 MOL1         0.1025
      13    H9      18.964088   19.214581   23.495291 H          1 MOL1         0.1025
      14    C4      20.161304   17.447770   23.065732 C.3        1 MOL1        -0.2258
      15    H10     20.239412   16.656232   22.309100 H          1 MOL1         0.1036
      16    H11     19.981258   16.966775   24.035905 H          1 MOL1         0.1036
      17    H12     21.129180   17.961277   23.125870 H          1 MOL1         0.1036
@<TRIPOS>BOND
    1     1     2    1
    2     1     3    1
    3     1     4    1
    4     1     5    1
    5     5     6    1
    6     5     7    1
    7     5     8    1
    8     8     9    1
    9     8    10    1
   10     8    11    1
   11    11    12    1
   12    11    13    1
   13    11    14    1
   14    14    15    1
   15    14    16    1
   16    14    17    1
@<TRIPOS>SUBSTRUCTURE
       1 MOL1            1 RESIDUE      1      MOL     
@<SCITEGIC>MOL_PROPERTY
VConf Rank
SciTegic.value.IntegerValue
668

@<SCITEGIC>MOL_PROPERTY
Conf_Id
SciTegic.value.IntegerValue
36

@<SCITEGIC>MOL_PROPERTY
Delta U+W
SciTegic.value.DoubleValue
0.275

@<SCITEGIC>MOL_PROPERTY
U+W
SciTegic.value.DoubleValue
-15.590

@<SCITEGIC>MOL_PROPERTY
Grad RMS
SciTegic.value.DoubleValue
0.000000

@<SCITEGIC>MOL_PROPERTY
U
SciTegic.value.DoubleValue
45.174

@<SCITEGIC>MOL_PROPERTY
W
SciTegic.value.DoubleValue
-60.765

@<SCITEGIC>MOL_PROPERTY
W(PB)
SciTegic.value.DoubleValue
-62.518

@<SCITEGIC>MOL_PROPERTY
W(SA)
SciTegic.value.DoubleValue
1.754

@<SCITEGIC>MOL_PROPERTY
Valence
SciTegic.value.DoubleValue
1.161

@<SCITEGIC>MOL_PROPERTY
Coulomb
SciTegic.value.DoubleValue
43.789

@<SCITEGIC>MOL_PROPERTY
VdW
SciTegic.value.DoubleValue
0.224

@<SCITEGIC>MOL_PROPERTY
VdW6
SciTegic.value.DoubleValue
-2.897

@<SCITEGIC>MOL_PROPERTY
VdW12
SciTegic.value.DoubleValue
3.121

@<SCITEGIC>MOL_PROPERTY
Bond
SciTegic.value.DoubleValue
0.100

@<SCITEGIC>MOL_PROPERTY
Angle
SciTegic.value.DoubleValue
0.500

@<SCITEGIC>MOL_PROPERTY
Pdih
SciTegic.value.DoubleValue
0.561

@<SCITEGIC>MOL_PROPERTY
Idih
SciTegic.value.DoubleValue
0.000

@<SCITEGIC>MOL_PROPERTY
Tether
SciTegic.value.DoubleValue
0.000

@<TRIPOS>MOLECULE
guest-1_confgen4.mol2 : confsearch ligand conformer 669
          17          16           1
SMALL
USER_CHARGES
 
@<TRIPOS>ATOM
       1    N1      20.674175   20.494151   22.403513 N.4        1 MOL1        -0.5891
       2    H1      20.934376   20.434605   21.415791 H          1 MOL1         0.3726
       3    H2      21.476585   20.162167   22.947024 H          1 MOL1         0.3726
       4    H3      20.555331   21.487807   22.625656 H          1 MOL1         0.3726
       5    C1      19.420674   19.695066   22.703890 C.3        1 MOL1         0.0314
       6    H4      18.586527   20.134962   22.150724 H          1 MOL1         0.0999
       7    H5      19.216114   19.810459   23.771774 H          1 MOL1         0.0999
       8    C2      19.532042   18.191851   22.372899 C.3        1 MOL1        -0.1308
       9    H6      20.498108   17.801525   22.719441 H          1 MOL1         0.1025
      10    H7      18.766761   17.662903   22.956342 H          1 MOL1         0.1025
      11    C3      19.315500   17.845167   20.877698 C.3        1 MOL1        -0.1243
      12    H8      18.319711   18.184986   20.559974 H          1 MOL1         0.1025
      13    H9      19.310679   16.751054   20.773381 H          1 MOL1         0.1025
      14    C4      20.385804   18.425582   19.925621 C.3        1 MOL1        -0.2258
      15    H10     20.294319   19.514048   19.833158 H          1 MOL1         0.1036
      16    H11     20.266994   18.005592   18.918324 H          1 MOL1         0.1036
      17    H12     21.399497   18.182792   20.270051 H          1 MOL1         0.1036
@<TRIPOS>BOND
    1     1     2    1
    2     1     3    1
    3     1     4    1
    4     1     5    1
    5     5     6    1
    6     5     7    1
    7     5     8    1
    8     8     9    1
    9     8    10    1
   10     8    11    1
   11    11    12    1
   12    11    13    1
   13    11    14    1
   14    14    15    1
   15    14    16    1
   16    14    17    1
@<TRIPOS>SUBSTRUCTURE
       1 MOL1            1 RESIDUE      1      MOL     
@<SCITEGIC>MOL_PROPERTY
VConf Rank
SciTegic.value.IntegerValue
669

@<SCITEGIC>MOL_PROPERTY
Conf_Id
SciTegic.value.IntegerValue
19

@<SCITEGIC>MOL_PROPERTY
Delta U+W
SciTegic.value.DoubleValue
2.662

@<SCITEGIC>MOL_PROPERTY
U+W
SciTegic.value.DoubleValue
-13.203

@<SCITEGIC>MOL_PROPERTY
Grad RMS
SciTegic.value.DoubleValue
0.000000

@<SCITEGIC>MOL_PROPERTY
U
SciTegic.value.DoubleValue
47.423

@<SCITEGIC>MOL_PROPERTY
W
SciTegic.value.DoubleValue
-60.626

@<SCITEGIC>MOL_PROPERTY
W(PB)
SciTegic.value.DoubleValue
-62.328

@<SCITEGIC>MOL_PROPERTY
W(SA)
SciTegic.value.DoubleValue
1.702

@<SCITEGIC>MOL_PROPERTY
Valence
SciTegic.value.DoubleValue
2.414

@<SCITEGIC>MOL_PROPERTY
Coulomb
SciTegic.value.DoubleValue
44.831

@<SCITEGIC>MOL_PROPERTY
VdW
SciTegic.value.DoubleValue
0.178

@<SCITEGIC>MOL_PROPERTY
VdW6
SciTegic.value.DoubleValue
-3.743

@<SCITEGIC>MOL_PROPERTY
VdW12
SciTegic.value.DoubleValue
3.921

@<SCITEGIC>MOL_PROPERTY
Bond
SciTegic.value.DoubleValue
0.138

@<SCITEGIC>MOL_PROPERTY
Angle
SciTegic.value.DoubleValue
0.941

@<SCITEGIC>MOL_PROPERTY
Pdih
SciTegic.value.DoubleValue
1.335

@<SCITEGIC>MOL_PROPERTY
Idih
SciTegic.value.DoubleValue
0.000

@<SCITEGIC>MOL_PROPERTY
Tether
SciTegic.value.DoubleValue
0.000

@<TRIPOS>MOLECULE
guest-1_confgen4.mol2 : confsearch ligand conformer 670
          17          16           1
SMALL
USER_CHARGES
 
@<TRIPOS>ATOM
       1    N1      18.907510   19.749630   20.173902 N.4        1 MOL1        -0.5891
       2    H1      18.208526   19.563106   19.447641 H          1 MOL1         0.3726
       3    H2      19.332438   20.654918   19.951709 H          1 MOL1         0.3726
       4    H3      18.402863   19.862655   21.056739 H          1 MOL1         0.3726
       5    C1      19.944044   18.645605   20.256144 C.3        1 MOL1         0.0314
       6    H4      20.434044   18.593651   19.280061 H          1 MOL1         0.0999
       7    H5      19.428886   17.696438   20.426426 H          1 MOL1         0.0999
       8    C2      21.015471   18.861203   21.345718 C.3        1 MOL1        -0.1308
       9    H6      21.889796   18.251911   21.080830 H          1 MOL1         0.1025
      10    H7      21.359878   19.903769   21.332729 H          1 MOL1         0.1025
      11    C3      20.569268   18.458553   22.774521 C.3        1 MOL1        -0.1243
      12    H8      21.434133   18.551901   23.446298 H          1 MOL1         0.1025
      13    H9      20.287367   17.396305   22.788076 H          1 MOL1         0.1025
      14    C4      19.409543   19.306464   23.344580 C.3        1 MOL1        -0.2258
      15    H10     19.620785   20.380255   23.257973 H          1 MOL1         0.1036
      16    H11     19.260837   19.081243   24.408684 H          1 MOL1         0.1036
      17    H12     18.463822   19.089240   22.834574 H          1 MOL1         0.1036
@<TRIPOS>BOND
    1     1     2    1
    2     1     3    1
    3     1     4    1
    4     1     5    1
    5     5     6    1
    6     5     7    1
    7     5     8    1
    8     8     9    1
    9     8    10    1
   10     8    11    1
   11    11    12    1
   12    11    13    1
   13    11    14    1
   14    14    15    1
   15    14    16    1
   16    14    17    1
@<TRIPOS>SUBSTRUCTURE
       1 MOL1            1 RESIDUE      1      MOL     
@<SCITEGIC>MOL_PROPERTY
VConf Rank
SciTegic.value.IntegerValue
670

@<SCITEGIC>MOL_PROPERTY
Conf_Id
SciTegic.value.IntegerValue
44

@<SCITEGIC>MOL_PROPERTY
Delta U+W
SciTegic.value.DoubleValue
2.712

@<SCITEGIC>MOL_PROPERTY
U+W
SciTegic.value.DoubleValue
-13.153

@<SCITEGIC>MOL_PROPERTY
Grad RMS
SciTegic.value.DoubleValue
0.000000

@<SCITEGIC>MOL_PROPERTY
U
SciTegic.value.DoubleValue
47.423

@<SCITEGIC>MOL_PROPERTY
W
SciTegic.value.DoubleValue
-60.576

@<SCITEGIC>MOL_PROPERTY
W(PB)
SciTegic.value.DoubleValue
-62.262

@<SCITEGIC>MOL_PROPERTY
W(SA)
SciTegic.value.DoubleValue
1.687

@<SCITEGIC>MOL_PROPERTY
Valence
SciTegic.value.DoubleValue
2.414

@<SCITEGIC>MOL_PROPERTY
Coulomb
SciTegic.value.DoubleValue
44.831

@<SCITEGIC>MOL_PROPERTY
VdW
SciTegic.value.DoubleValue
0.178

@<SCITEGIC>MOL_PROPERTY
VdW6
SciTegic.value.DoubleValue
-3.743

@<SCITEGIC>MOL_PROPERTY
VdW12
SciTegic.value.DoubleValue
3.922

@<SCITEGIC>MOL_PROPERTY
Bond
SciTegic.value.DoubleValue
0.138

@<SCITEGIC>MOL_PROPERTY
Angle
SciTegic.value.DoubleValue
0.941

@<SCITEGIC>MOL_PROPERTY
Pdih
SciTegic.value.DoubleValue
1.335

@<SCITEGIC>MOL_PROPERTY
Idih
SciTegic.value.DoubleValue
0.000

@<SCITEGIC>MOL_PROPERTY
Tether
SciTegic.value.DoubleValue
0.000

@<TRIPOS>MOLECULE
guest-1_confgen4.mol2 : confsearch ligand conformer 671
          17          16           1
SMALL
USER_CHARGES
 
@<TRIPOS>ATOM
       1    N1      20.953140   19.628596   23.189091 N.4        1 MOL1        -0.5891
       2    H1      20.841926   18.613336   23.262070 H          1 MOL1         0.3726
       3    H2      20.345690   20.051478   23.897295 H          1 MOL1         0.3726
       4    H3      21.918515   19.843947   23.458059 H          1 MOL1         0.3726
       5    C1      20.630869   20.130287   21.794707 C.3        1 MOL1         0.0314
       6    H4      21.331004   19.664778   21.096196 H          1 MOL1         0.0999
       7    H5      20.806497   21.209400   21.780248 H          1 MOL1         0.0999
       8    C2      19.182351   19.842585   21.348678 C.3        1 MOL1        -0.1308
       9    H6      18.487573   20.347794   22.032634 H          1 MOL1         0.1025
      10    H7      19.022438   20.295358   20.361141 H          1 MOL1         0.1025
      11    C3      18.831719   18.335275   21.280624 C.3        1 MOL1        -0.1243
      12    H8      17.782717   18.229746   20.970203 H          1 MOL1         0.1025
      13    H9      18.898209   17.886587   22.281080 H          1 MOL1         0.1025
      14    C4      19.728069   17.548930   20.296746 C.3        1 MOL1        -0.2258
      15    H10     19.677756   17.978339   19.287715 H          1 MOL1         0.1036
      16    H11     19.402744   16.502555   20.231689 H          1 MOL1         0.1036
      17    H12     20.777424   17.549772   20.617373 H          1 MOL1         0.1036
@<TRIPOS>BOND
    1     1     2    1
    2     1     3    1
    3     1     4    1
    4     1     5    1
    5     5     6    1
    6     5     7    1
    7     5     8    1
    8     8     9    1
    9     8    10    1
   10     8    11    1
   11    11    12    1
   12    11    13    1
   13    11    14    1
   14    14    15    1
   15    14    16    1
   16    14    17    1
@<TRIPOS>SUBSTRUCTURE
       1 MOL1            1 RESIDUE      1      MOL     
@<SCITEGIC>MOL_PROPERTY
VConf Rank
SciTegic.value.IntegerValue
671

@<SCITEGIC>MOL_PROPERTY
Conf_Id
SciTegic.value.IntegerValue
1

@<SCITEGIC>MOL_PROPERTY
Delta U+W
SciTegic.value.DoubleValue
0.685

@<SCITEGIC>MOL_PROPERTY
U+W
SciTegic.value.DoubleValue
-15.179

@<SCITEGIC>MOL_PROPERTY
Grad RMS
SciTegic.value.DoubleValue
0.000000

@<SCITEGIC>MOL_PROPERTY
U
SciTegic.value.DoubleValue
45.697

@<SCITEGIC>MOL_PROPERTY
W
SciTegic.value.DoubleValue
-60.876

@<SCITEGIC>MOL_PROPERTY
W(PB)
SciTegic.value.DoubleValue
-62.586

@<SCITEGIC>MOL_PROPERTY
W(SA)
SciTegic.value.DoubleValue
1.710

@<SCITEGIC>MOL_PROPERTY
Valence
SciTegic.value.DoubleValue
1.263

@<SCITEGIC>MOL_PROPERTY
Coulomb
SciTegic.value.DoubleValue
44.179

@<SCITEGIC>MOL_PROPERTY
VdW
SciTegic.value.DoubleValue
0.255

@<SCITEGIC>MOL_PROPERTY
VdW6
SciTegic.value.DoubleValue
-3.552

@<SCITEGIC>MOL_PROPERTY
VdW12
SciTegic.value.DoubleValue
3.807

@<SCITEGIC>MOL_PROPERTY
Bond
SciTegic.value.DoubleValue
0.125

@<SCITEGIC>MOL_PROPERTY
Angle
SciTegic.value.DoubleValue
0.616

@<SCITEGIC>MOL_PROPERTY
Pdih
SciTegic.value.DoubleValue
0.521

@<SCITEGIC>MOL_PROPERTY
Idih
SciTegic.value.DoubleValue
0.000

@<SCITEGIC>MOL_PROPERTY
Tether
SciTegic.value.DoubleValue
0.000

@<TRIPOS>MOLECULE
guest-1_confgen4.mol2 : confsearch ligand conformer 672
          17          16           1
SMALL
USER_CHARGES
 
@<TRIPOS>ATOM
       1    N1      19.349346   18.289992   23.350236 N.4        1 MOL1        -0.5891
       2    H1      19.099433   19.033748   24.008832 H          1 MOL1         0.3726
       3    H2      20.371717   18.239786   23.324048 H          1 MOL1         0.3726
       4    H3      19.016813   17.409279   23.755739 H          1 MOL1         0.3726
       5    C1      18.763352   18.533485   21.972855 C.3        1 MOL1         0.0314
       6    H4      17.674302   18.537508   22.070289 H          1 MOL1         0.0999
       7    H5      19.041987   17.692990   21.331968 H          1 MOL1         0.0999
       8    C2      19.223073   19.856141   21.325431 C.3        1 MOL1        -0.1308
       9    H6      18.701895   19.977599   20.366565 H          1 MOL1         0.1025
      10    H7      18.902974   20.696318   21.955818 H          1 MOL1         0.1025
      11    C3      20.751454   19.944018   21.089021 C.3        1 MOL1        -0.1243
      12    H8      21.284266   19.916334   22.049229 H          1 MOL1         0.1025
      13    H9      20.984587   20.920168   20.641044 H          1 MOL1         0.1025
      14    C4      21.286373   18.826565   20.164380 C.3        1 MOL1        -0.2258
      15    H10     22.358144   18.965855   19.972360 H          1 MOL1         0.1036
      16    H11     20.769180   18.834288   19.196125 H          1 MOL1         0.1036
      17    H12     21.157090   17.833965   20.613801 H          1 MOL1         0.1036
@<TRIPOS>BOND
    1     1     2    1
    2     1     3    1
    3     1     4    1
    4     1     5    1
    5     5     6    1
    6     5     7    1
    7     5     8    1
    8     8     9    1
    9     8    10    1
   10     8    11    1
   11    11    12    1
   12    11    13    1
   13    11    14    1
   14    14    15    1
   15    14    16    1
   16    14    17    1
@<TRIPOS>SUBSTRUCTURE
       1 MOL1            1 RESIDUE      1      MOL     
@<SCITEGIC>MOL_PROPERTY
VConf Rank
SciTegic.value.IntegerValue
672

@<SCITEGIC>MOL_PROPERTY
Conf_Id
SciTegic.value.IntegerValue
43

@<SCITEGIC>MOL_PROPERTY
Delta U+W
SciTegic.value.DoubleValue
0.642

@<SCITEGIC>MOL_PROPERTY
U+W
SciTegic.value.DoubleValue
-15.222

@<SCITEGIC>MOL_PROPERTY
Grad RMS
SciTegic.value.DoubleValue
0.000000

@<SCITEGIC>MOL_PROPERTY
U
SciTegic.value.DoubleValue
45.697

@<SCITEGIC>MOL_PROPERTY
W
SciTegic.value.DoubleValue
-60.919

@<SCITEGIC>MOL_PROPERTY
W(PB)
SciTegic.value.DoubleValue
-62.631

@<SCITEGIC>MOL_PROPERTY
W(SA)
SciTegic.value.DoubleValue
1.712

@<SCITEGIC>MOL_PROPERTY
Valence
SciTegic.value.DoubleValue
1.262

@<SCITEGIC>MOL_PROPERTY
Coulomb
SciTegic.value.DoubleValue
44.179

@<SCITEGIC>MOL_PROPERTY
VdW
SciTegic.value.DoubleValue
0.255

@<SCITEGIC>MOL_PROPERTY
VdW6
SciTegic.value.DoubleValue
-3.552

@<SCITEGIC>MOL_PROPERTY
VdW12
SciTegic.value.DoubleValue
3.807

@<SCITEGIC>MOL_PROPERTY
Bond
SciTegic.value.DoubleValue
0.125

@<SCITEGIC>MOL_PROPERTY
Angle
SciTegic.value.DoubleValue
0.616

@<SCITEGIC>MOL_PROPERTY
Pdih
SciTegic.value.DoubleValue
0.521

@<SCITEGIC>MOL_PROPERTY
Idih
SciTegic.value.DoubleValue
0.000

@<SCITEGIC>MOL_PROPERTY
Tether
SciTegic.value.DoubleValue
0.000

@<TRIPOS>MOLECULE
guest-1_confgen4.mol2 : confsearch ligand conformer 673
          17          16           1
SMALL
USER_CHARGES
 
@<TRIPOS>ATOM
       1    N1      21.919280   17.630765   22.432672 N.4        1 MOL1        -0.5891
       2    H1      21.789449   16.842367   21.791371 H          1 MOL1         0.3726
       3    H2      21.512591   17.356781   23.332246 H          1 MOL1         0.3726
       4    H3      22.928851   17.728425   22.581462 H          1 MOL1         0.3726
       5    C1      21.302701   18.907070   21.895799 C.3        1 MOL1         0.0314
       6    H4      21.803207   19.154287   20.955639 H          1 MOL1         0.0999
       7    H5      21.505534   19.707466   22.612562 H          1 MOL1         0.0999
       8    C2      19.785327   18.795538   21.660435 C.3        1 MOL1        -0.1308
       9    H6      19.584433   17.980742   20.952099 H          1 MOL1         0.1025
      10    H7      19.287774   18.532168   22.603339 H          1 MOL1         0.1025
      11    C3      19.197862   20.115373   21.114137 C.3        1 MOL1        -0.1243
      12    H8      19.697837   20.381268   20.171984 H          1 MOL1         0.1025
      13    H9      19.401469   20.932004   21.821232 H          1 MOL1         0.1025
      14    C4      17.675983   20.011011   20.875500 C.3        1 MOL1        -0.2258
      15    H10     17.278350   20.957916   20.487804 H          1 MOL1         0.1036
      16    H11     17.144524   19.779797   21.807862 H          1 MOL1         0.1036
      17    H12     17.443236   19.224667   20.145637 H          1 MOL1         0.1036
@<TRIPOS>BOND
    1     1     2    1
    2     1     3    1
    3     1     4    1
    4     1     5    1
    5     5     6    1
    6     5     7    1
    7     5     8    1
    8     8     9    1
    9     8    10    1
   10     8    11    1
   11    11    12    1
   12    11    13    1
   13    11    14    1
   14    14    15    1
   15    14    16    1
   16    14    17    1
@<TRIPOS>SUBSTRUCTURE
       1 MOL1            1 RESIDUE      1      MOL     
@<SCITEGIC>MOL_PROPERTY
VConf Rank
SciTegic.value.IntegerValue
673

@<SCITEGIC>MOL_PROPERTY
Conf_Id
SciTegic.value.IntegerValue
7

@<SCITEGIC>MOL_PROPERTY
Delta U+W
SciTegic.value.DoubleValue
0.000

@<SCITEGIC>MOL_PROPERTY
U+W
SciTegic.value.DoubleValue
-15.865

@<SCITEGIC>MOL_PROPERTY
Grad RMS
SciTegic.value.DoubleValue
0.000000

@<SCITEGIC>MOL_PROPERTY
U
SciTegic.value.DoubleValue
44.664

@<SCITEGIC>MOL_PROPERTY
W
SciTegic.value.DoubleValue
-60.529

@<SCITEGIC>MOL_PROPERTY
W(PB)
SciTegic.value.DoubleValue
-62.309

@<SCITEGIC>MOL_PROPERTY
W(SA)
SciTegic.value.DoubleValue
1.780

@<SCITEGIC>MOL_PROPERTY
Valence
SciTegic.value.DoubleValue
0.872

@<SCITEGIC>MOL_PROPERTY
Coulomb
SciTegic.value.DoubleValue
43.648

@<SCITEGIC>MOL_PROPERTY
VdW
SciTegic.value.DoubleValue
0.144

@<SCITEGIC>MOL_PROPERTY
VdW6
SciTegic.value.DoubleValue
-2.370

@<SCITEGIC>MOL_PROPERTY
VdW12
SciTegic.value.DoubleValue
2.515

@<SCITEGIC>MOL_PROPERTY
Bond
SciTegic.value.DoubleValue
0.080

@<SCITEGIC>MOL_PROPERTY
Angle
SciTegic.value.DoubleValue
0.376

@<SCITEGIC>MOL_PROPERTY
Pdih
SciTegic.value.DoubleValue
0.416

@<SCITEGIC>MOL_PROPERTY
Idih
SciTegic.value.DoubleValue
0.000

@<SCITEGIC>MOL_PROPERTY
Tether
SciTegic.value.DoubleValue
0.000

@<TRIPOS>MOLECULE
guest-1_confgen4.mol2 : confsearch ligand conformer 674
          17          16           1
SMALL
USER_CHARGES
 
@<TRIPOS>ATOM
       1    N1      20.650874   21.359161   22.049794 N.4        1 MOL1        -0.5891
       2    H1      20.029475   22.002624   21.550326 H          1 MOL1         0.3726
       3    H2      21.531924   21.326194   21.527960 H          1 MOL1         0.3726
       4    H3      20.858914   21.791579   22.955651 H          1 MOL1         0.3726
       5    C1      20.034213   19.983869   22.209971 C.3        1 MOL1         0.0314
       6    H4      19.118970   20.090356   22.798528 H          1 MOL1         0.0999
       7    H5      20.735657   19.365119   22.775623 H          1 MOL1         0.0999
       8    C2      19.708910   19.304503   20.865873 C.3        1 MOL1        -0.1308
       9    H6      19.035778   19.952433   20.288848 H          1 MOL1         0.1025
      10    H7      20.627892   19.199077   20.274057 H          1 MOL1         0.1025
      11    C3      19.044460   17.919193   21.043148 C.3        1 MOL1        -0.1243
      12    H8      18.766693   17.527412   20.054545 H          1 MOL1         0.1025
      13    H9      18.107081   18.027485   21.606864 H          1 MOL1         0.1025
      14    C4      19.961091   16.895609   21.751680 C.3        1 MOL1        -0.2258
      15    H10     20.908623   16.773165   21.211019 H          1 MOL1         0.1036
      16    H11     19.474567   15.912829   21.801136 H          1 MOL1         0.1036
      17    H12     20.190262   17.203165   22.779776 H          1 MOL1         0.1036
@<TRIPOS>BOND
    1     1     2    1
    2     1     3    1
    3     1     4    1
    4     1     5    1
    5     5     6    1
    6     5     7    1
    7     5     8    1
    8     8     9    1
    9     8    10    1
   10     8    11    1
   11    11    12    1
   12    11    13    1
   13    11    14    1
   14    14    15    1
   15    14    16    1
   16    14    17    1
@<TRIPOS>SUBSTRUCTURE
       1 MOL1            1 RESIDUE      1      MOL     
@<SCITEGIC>MOL_PROPERTY
VConf Rank
SciTegic.value.IntegerValue
674

@<SCITEGIC>MOL_PROPERTY
Conf_Id
SciTegic.value.IntegerValue
36

@<SCITEGIC>MOL_PROPERTY
Delta U+W
SciTegic.value.DoubleValue
0.275

@<SCITEGIC>MOL_PROPERTY
U+W
SciTegic.value.DoubleValue
-15.590

@<SCITEGIC>MOL_PROPERTY
Grad RMS
SciTegic.value.DoubleValue
0.000000

@<SCITEGIC>MOL_PROPERTY
U
SciTegic.value.DoubleValue
45.174

@<SCITEGIC>MOL_PROPERTY
W
SciTegic.value.DoubleValue
-60.765

@<SCITEGIC>MOL_PROPERTY
W(PB)
SciTegic.value.DoubleValue
-62.518

@<SCITEGIC>MOL_PROPERTY
W(SA)
SciTegic.value.DoubleValue
1.754

@<SCITEGIC>MOL_PROPERTY
Valence
SciTegic.value.DoubleValue
1.161

@<SCITEGIC>MOL_PROPERTY
Coulomb
SciTegic.value.DoubleValue
43.789

@<SCITEGIC>MOL_PROPERTY
VdW
SciTegic.value.DoubleValue
0.224

@<SCITEGIC>MOL_PROPERTY
VdW6
SciTegic.value.DoubleValue
-2.897

@<SCITEGIC>MOL_PROPERTY
VdW12
SciTegic.value.DoubleValue
3.121

@<SCITEGIC>MOL_PROPERTY
Bond
SciTegic.value.DoubleValue
0.100

@<SCITEGIC>MOL_PROPERTY
Angle
SciTegic.value.DoubleValue
0.500

@<SCITEGIC>MOL_PROPERTY
Pdih
SciTegic.value.DoubleValue
0.561

@<SCITEGIC>MOL_PROPERTY
Idih
SciTegic.value.DoubleValue
0.000

@<SCITEGIC>MOL_PROPERTY
Tether
SciTegic.value.DoubleValue
0.000

@<TRIPOS>MOLECULE
guest-1_confgen4.mol2 : confsearch ligand conformer 675
          17          16           1
SMALL
USER_CHARGES
 
@<TRIPOS>ATOM
       1    N1      18.827550   19.910663   22.771314 N.4        1 MOL1        -0.5891
       2    H1      18.286649   19.420086   22.054652 H          1 MOL1         0.3726
       3    H2      18.876585   20.894741   22.490838 H          1 MOL1         0.3726
       4    H3      18.282332   19.875614   23.638685 H          1 MOL1         0.3726
       5    C1      20.206970   19.305439   22.947195 C.3        1 MOL1         0.0314
       6    H4      20.093695   18.280740   23.311148 H          1 MOL1         0.0999
       7    H5      20.714073   19.885391   23.723107 H          1 MOL1         0.0999
       8    C2      21.070877   19.313048   21.668437 C.3        1 MOL1        -0.1308
       9    H6      20.985053   20.284055   21.162958 H          1 MOL1         0.1025
      10    H7      22.121928   19.224403   21.973855 H          1 MOL1         0.1025
      11    C3      20.763561   18.160732   20.678272 C.3        1 MOL1        -0.1243
      12    H8      20.914347   17.193664   21.178337 H          1 MOL1         0.1025
      13    H9      21.499881   18.199296   19.863204 H          1 MOL1         0.1025
      14    C4      19.346187   18.207251   20.063643 C.3        1 MOL1        -0.2258
      15    H10     18.577388   17.964381   20.806366 H          1 MOL1         0.1036
      16    H11     19.257589   17.469753   19.255309 H          1 MOL1         0.1036
      17    H12     19.128533   19.195460   19.637940 H          1 MOL1         0.1036
@<TRIPOS>BOND
    1     1     2    1
    2     1     3    1
    3     1     4    1
    4     1     5    1
    5     5     6    1
    6     5     7    1
    7     5     8    1
    8     8     9    1
    9     8    10    1
   10     8    11    1
   11    11    12    1
   12    11    13    1
   13    11    14    1
   14    14    15    1
   15    14    16    1
   16    14    17    1
@<TRIPOS>SUBSTRUCTURE
       1 MOL1            1 RESIDUE      1      MOL     
@<SCITEGIC>MOL_PROPERTY
VConf Rank
SciTegic.value.IntegerValue
675

@<SCITEGIC>MOL_PROPERTY
Conf_Id
SciTegic.value.IntegerValue
19

@<SCITEGIC>MOL_PROPERTY
Delta U+W
SciTegic.value.DoubleValue
2.662

@<SCITEGIC>MOL_PROPERTY
U+W
SciTegic.value.DoubleValue
-13.203

@<SCITEGIC>MOL_PROPERTY
Grad RMS
SciTegic.value.DoubleValue
0.000000

@<SCITEGIC>MOL_PROPERTY
U
SciTegic.value.DoubleValue
47.423

@<SCITEGIC>MOL_PROPERTY
W
SciTegic.value.DoubleValue
-60.626

@<SCITEGIC>MOL_PROPERTY
W(PB)
SciTegic.value.DoubleValue
-62.328

@<SCITEGIC>MOL_PROPERTY
W(SA)
SciTegic.value.DoubleValue
1.702

@<SCITEGIC>MOL_PROPERTY
Valence
SciTegic.value.DoubleValue
2.414

@<SCITEGIC>MOL_PROPERTY
Coulomb
SciTegic.value.DoubleValue
44.831

@<SCITEGIC>MOL_PROPERTY
VdW
SciTegic.value.DoubleValue
0.178

@<SCITEGIC>MOL_PROPERTY
VdW6
SciTegic.value.DoubleValue
-3.743

@<SCITEGIC>MOL_PROPERTY
VdW12
SciTegic.value.DoubleValue
3.921

@<SCITEGIC>MOL_PROPERTY
Bond
SciTegic.value.DoubleValue
0.138

@<SCITEGIC>MOL_PROPERTY
Angle
SciTegic.value.DoubleValue
0.941

@<SCITEGIC>MOL_PROPERTY
Pdih
SciTegic.value.DoubleValue
1.335

@<SCITEGIC>MOL_PROPERTY
Idih
SciTegic.value.DoubleValue
0.000

@<SCITEGIC>MOL_PROPERTY
Tether
SciTegic.value.DoubleValue
0.000

@<TRIPOS>MOLECULE
guest-1_confgen4.mol2 : confsearch ligand conformer 676
          17          16           1
SMALL
USER_CHARGES
 
@<TRIPOS>ATOM
       1    N1      21.525208   19.832629   21.205892 N.4        1 MOL1        -0.5891
       2    H1      22.322012   19.862687   20.561670 H          1 MOL1         0.3726
       3    H2      21.797655   20.361018   22.040193 H          1 MOL1         0.3726
       4    H3      20.758719   20.344963   20.762211 H          1 MOL1         0.3726
       5    C1      21.127617   18.409012   21.545415 C.3        1 MOL1         0.0314
       6    H4      21.995942   17.937499   22.013628 H          1 MOL1         0.0999
       7    H5      20.914424   17.875831   20.615056 H          1 MOL1         0.0999
       8    C2      19.919784   18.298050   22.499585 C.3        1 MOL1        -0.1308
       9    H6      19.955094   17.306724   22.970619 H          1 MOL1         0.1025
      10    H7      20.019399   19.023815   23.317553 H          1 MOL1         0.1025
      11    C3      18.539844   18.449037   21.809896 C.3        1 MOL1        -0.1243
      12    H8      17.756931   18.249260   22.554965 H          1 MOL1         0.1025
      13    H9      18.426948   17.676706   21.036087 H          1 MOL1         0.1025
      14    C4      18.284641   19.841267   21.189054 C.3        1 MOL1        -0.2258
      15    H10     18.481876   20.642738   21.912860 H          1 MOL1         0.1036
      16    H11     17.237611   19.930026   20.871237 H          1 MOL1         0.1036
      17    H12     18.905507   20.005583   20.300682 H          1 MOL1         0.1036
@<TRIPOS>BOND
    1     1     2    1
    2     1     3    1
    3     1     4    1
    4     1     5    1
    5     5     6    1
    6     5     7    1
    7     5     8    1
    8     8     9    1
    9     8    10    1
   10     8    11    1
   11    11    12    1
   12    11    13    1
   13    11    14    1
   14    14    15    1
   15    14    16    1
   16    14    17    1
@<TRIPOS>SUBSTRUCTURE
       1 MOL1            1 RESIDUE      1      MOL     
@<SCITEGIC>MOL_PROPERTY
VConf Rank
SciTegic.value.IntegerValue
676

@<SCITEGIC>MOL_PROPERTY
Conf_Id
SciTegic.value.IntegerValue
44

@<SCITEGIC>MOL_PROPERTY
Delta U+W
SciTegic.value.DoubleValue
2.712

@<SCITEGIC>MOL_PROPERTY
U+W
SciTegic.value.DoubleValue
-13.153

@<SCITEGIC>MOL_PROPERTY
Grad RMS
SciTegic.value.DoubleValue
0.000000

@<SCITEGIC>MOL_PROPERTY
U
SciTegic.value.DoubleValue
47.423

@<SCITEGIC>MOL_PROPERTY
W
SciTegic.value.DoubleValue
-60.576

@<SCITEGIC>MOL_PROPERTY
W(PB)
SciTegic.value.DoubleValue
-62.262

@<SCITEGIC>MOL_PROPERTY
W(SA)
SciTegic.value.DoubleValue
1.687

@<SCITEGIC>MOL_PROPERTY
Valence
SciTegic.value.DoubleValue
2.414

@<SCITEGIC>MOL_PROPERTY
Coulomb
SciTegic.value.DoubleValue
44.831

@<SCITEGIC>MOL_PROPERTY
VdW
SciTegic.value.DoubleValue
0.178

@<SCITEGIC>MOL_PROPERTY
VdW6
SciTegic.value.DoubleValue
-3.743

@<SCITEGIC>MOL_PROPERTY
VdW12
SciTegic.value.DoubleValue
3.922

@<SCITEGIC>MOL_PROPERTY
Bond
SciTegic.value.DoubleValue
0.138

@<SCITEGIC>MOL_PROPERTY
Angle
SciTegic.value.DoubleValue
0.941

@<SCITEGIC>MOL_PROPERTY
Pdih
SciTegic.value.DoubleValue
1.335

@<SCITEGIC>MOL_PROPERTY
Idih
SciTegic.value.DoubleValue
0.000

@<SCITEGIC>MOL_PROPERTY
Tether
SciTegic.value.DoubleValue
0.000

@<TRIPOS>MOLECULE
guest-1_confgen4.mol2 : confsearch ligand conformer 677
          17          16           1
SMALL
USER_CHARGES
 
@<TRIPOS>ATOM
       1    N1      21.673829   19.018181   22.529235 N.4        1 MOL1        -0.5891
       2    H1      21.525188   18.080297   22.146187 H          1 MOL1         0.3726
       3    H2      21.560349   18.951876   23.545160 H          1 MOL1         0.3726
       4    H3      22.654269   19.260822   22.354502 H          1 MOL1         0.3726
       5    C1      20.724670   20.031275   21.918830 C.3        1 MOL1         0.0314
       6    H4      20.918240   20.073100   20.843848 H          1 MOL1         0.0999
       7    H5      20.964145   21.009951   22.343545 H          1 MOL1         0.0999
       8    C2      19.234825   19.717398   22.167351 C.3        1 MOL1        -0.1308
       9    H6      19.041883   19.717766   23.248333 H          1 MOL1         0.1025
      10    H7      18.629590   20.532349   21.748604 H          1 MOL1         0.1025
      11    C3      18.765071   18.371216   21.561809 C.3        1 MOL1        -0.1243
      12    H8      17.701918   18.227715   21.800594 H          1 MOL1         0.1025
      13    H9      19.297784   17.536738   22.037748 H          1 MOL1         0.1025
      14    C4      18.949444   18.299809   20.028608 C.3        1 MOL1        -0.2258
      15    H10     18.424339   19.124383   19.529198 H          1 MOL1         0.1036
      16    H11     18.544380   17.358331   19.635529 H          1 MOL1         0.1036
      17    H12     20.008720   18.347555   19.746468 H          1 MOL1         0.1036
@<TRIPOS>BOND
    1     1     2    1
    2     1     3    1
    3     1     4    1
    4     1     5    1
    5     5     6    1
    6     5     7    1
    7     5     8    1
    8     8     9    1
    9     8    10    1
   10     8    11    1
   11    11    12    1
   12    11    13    1
   13    11    14    1
   14    14    15    1
   15    14    16    1
   16    14    17    1
@<TRIPOS>SUBSTRUCTURE
       1 MOL1            1 RESIDUE      1      MOL     
@<SCITEGIC>MOL_PROPERTY
VConf Rank
SciTegic.value.IntegerValue
677

@<SCITEGIC>MOL_PROPERTY
Conf_Id
SciTegic.value.IntegerValue
1

@<SCITEGIC>MOL_PROPERTY
Delta U+W
SciTegic.value.DoubleValue
0.685

@<SCITEGIC>MOL_PROPERTY
U+W
SciTegic.value.DoubleValue
-15.179

@<SCITEGIC>MOL_PROPERTY
Grad RMS
SciTegic.value.DoubleValue
0.000000

@<SCITEGIC>MOL_PROPERTY
U
SciTegic.value.DoubleValue
45.697

@<SCITEGIC>MOL_PROPERTY
W
SciTegic.value.DoubleValue
-60.876

@<SCITEGIC>MOL_PROPERTY
W(PB)
SciTegic.value.DoubleValue
-62.586

@<SCITEGIC>MOL_PROPERTY
W(SA)
SciTegic.value.DoubleValue
1.710

@<SCITEGIC>MOL_PROPERTY
Valence
SciTegic.value.DoubleValue
1.263

@<SCITEGIC>MOL_PROPERTY
Coulomb
SciTegic.value.DoubleValue
44.179

@<SCITEGIC>MOL_PROPERTY
VdW
SciTegic.value.DoubleValue
0.255

@<SCITEGIC>MOL_PROPERTY
VdW6
SciTegic.value.DoubleValue
-3.552

@<SCITEGIC>MOL_PROPERTY
VdW12
SciTegic.value.DoubleValue
3.807

@<SCITEGIC>MOL_PROPERTY
Bond
SciTegic.value.DoubleValue
0.125

@<SCITEGIC>MOL_PROPERTY
Angle
SciTegic.value.DoubleValue
0.616

@<SCITEGIC>MOL_PROPERTY
Pdih
SciTegic.value.DoubleValue
0.521

@<SCITEGIC>MOL_PROPERTY
Idih
SciTegic.value.DoubleValue
0.000

@<SCITEGIC>MOL_PROPERTY
Tether
SciTegic.value.DoubleValue
0.000

@<TRIPOS>MOLECULE
guest-1_confgen4.mol2 : confsearch ligand conformer 678
          17          16           1
SMALL
USER_CHARGES
 
@<TRIPOS>ATOM
       1    N1      21.802089   19.171814   22.235073 N.4        1 MOL1        -0.5891
       2    H1      22.266029   18.258551   22.244450 H          1 MOL1         0.3726
       3    H2      21.200004   19.213990   23.062215 H          1 MOL1         0.3726
       4    H3      22.533689   19.878587   22.361173 H          1 MOL1         0.3726
       5    C1      21.017050   19.394525   20.956804 C.3        1 MOL1         0.0314
       6    H4      21.724740   19.373921   20.123564 H          1 MOL1         0.0999
       7    H5      20.574797   20.393214   20.999669 H          1 MOL1         0.0999
       8    C2      19.911727   18.346054   20.714133 C.3        1 MOL1        -0.1308
       9    H6      19.443366   18.548089   19.741702 H          1 MOL1         0.1025
      10    H7      20.370072   17.351619   20.631865 H          1 MOL1         0.1025
      11    C3      18.817684   18.318693   21.810436 C.3        1 MOL1        -0.1243
      12    H8      19.256355   18.027336   22.774455 H          1 MOL1         0.1025
      13    H9      18.086718   17.536685   21.561324 H          1 MOL1         0.1025
      14    C4      18.077990   19.667704   21.961498 C.3        1 MOL1        -0.2258
      15    H10     17.270689   19.583508   22.700513 H          1 MOL1         0.1036
      16    H11     17.629119   19.980340   21.009741 H          1 MOL1         0.1036
      17    H12     18.753867   20.463409   22.299125 H          1 MOL1         0.1036
@<TRIPOS>BOND
    1     1     2    1
    2     1     3    1
    3     1     4    1
    4     1     5    1
    5     5     6    1
    6     5     7    1
    7     5     8    1
    8     8     9    1
    9     8    10    1
   10     8    11    1
   11    11    12    1
   12    11    13    1
   13    11    14    1
   14    14    15    1
   15    14    16    1
   16    14    17    1
@<TRIPOS>SUBSTRUCTURE
       1 MOL1            1 RESIDUE      1      MOL     
@<SCITEGIC>MOL_PROPERTY
VConf Rank
SciTegic.value.IntegerValue
678

@<SCITEGIC>MOL_PROPERTY
Conf_Id
SciTegic.value.IntegerValue
43

@<SCITEGIC>MOL_PROPERTY
Delta U+W
SciTegic.value.DoubleValue
0.642

@<SCITEGIC>MOL_PROPERTY
U+W
SciTegic.value.DoubleValue
-15.222

@<SCITEGIC>MOL_PROPERTY
Grad RMS
SciTegic.value.DoubleValue
0.000000

@<SCITEGIC>MOL_PROPERTY
U
SciTegic.value.DoubleValue
45.697

@<SCITEGIC>MOL_PROPERTY
W
SciTegic.value.DoubleValue
-60.919

@<SCITEGIC>MOL_PROPERTY
W(PB)
SciTegic.value.DoubleValue
-62.631

@<SCITEGIC>MOL_PROPERTY
W(SA)
SciTegic.value.DoubleValue
1.712

@<SCITEGIC>MOL_PROPERTY
Valence
SciTegic.value.DoubleValue
1.262

@<SCITEGIC>MOL_PROPERTY
Coulomb
SciTegic.value.DoubleValue
44.179

@<SCITEGIC>MOL_PROPERTY
VdW
SciTegic.value.DoubleValue
0.255

@<SCITEGIC>MOL_PROPERTY
VdW6
SciTegic.value.DoubleValue
-3.552

@<SCITEGIC>MOL_PROPERTY
VdW12
SciTegic.value.DoubleValue
3.807

@<SCITEGIC>MOL_PROPERTY
Bond
SciTegic.value.DoubleValue
0.125

@<SCITEGIC>MOL_PROPERTY
Angle
SciTegic.value.DoubleValue
0.616

@<SCITEGIC>MOL_PROPERTY
Pdih
SciTegic.value.DoubleValue
0.521

@<SCITEGIC>MOL_PROPERTY
Idih
SciTegic.value.DoubleValue
0.000

@<SCITEGIC>MOL_PROPERTY
Tether
SciTegic.value.DoubleValue
0.000

@<TRIPOS>MOLECULE
guest-1_confgen4.mol2 : confsearch ligand conformer 679
          17          16           1
SMALL
USER_CHARGES
 
@<TRIPOS>ATOM
       1    N1      17.908248   19.035240   20.055710 N.4        1 MOL1        -0.5891
       2    H1      17.211759   19.314566   20.753260 H          1 MOL1         0.3726
       3    H2      17.835723   18.018891   19.948609 H          1 MOL1         0.3726
       4    H3      17.616750   19.448612   19.164048 H          1 MOL1         0.3726
       5    C1      19.307789   19.466756   20.446140 C.3        1 MOL1         0.0314
       6    H4      19.318601   20.558136   20.511682 H          1 MOL1         0.0999
       7    H5      19.989565   19.164903   19.646396 H          1 MOL1         0.0999
       8    C2      19.778138   18.863480   21.782213 C.3        1 MOL1        -0.1308
       9    H6      19.082556   19.155950   22.580096 H          1 MOL1         0.1025
      10    H7      19.751354   17.767526   21.717739 H          1 MOL1         0.1025
      11    C3      21.206496   19.327864   22.142301 C.3        1 MOL1        -0.1243
      12    H8      21.234708   20.425023   22.203721 H          1 MOL1         0.1025
      13    H9      21.902702   19.038235   21.342464 H          1 MOL1         0.1025
      14    C4      21.685099   18.726696   23.481513 C.3        1 MOL1        -0.2258
      15    H10     22.700870   19.068480   23.719089 H          1 MOL1         0.1036
      16    H11     21.700681   17.629797   23.439378 H          1 MOL1         0.1036
      17    H12     21.027370   19.027489   24.307421 H          1 MOL1         0.1036
@<TRIPOS>BOND
    1     1     2    1
    2     1     3    1
    3     1     4    1
    4     1     5    1
    5     5     6    1
    6     5     7    1
    7     5     8    1
    8     8     9    1
    9     8    10    1
   10     8    11    1
   11    11    12    1
   12    11    13    1
   13    11    14    1
   14    14    15    1
   15    14    16    1
   16    14    17    1
@<TRIPOS>SUBSTRUCTURE
       1 MOL1            1 RESIDUE      1      MOL     
@<SCITEGIC>MOL_PROPERTY
VConf Rank
SciTegic.value.IntegerValue
679

@<SCITEGIC>MOL_PROPERTY
Conf_Id
SciTegic.value.IntegerValue
7

@<SCITEGIC>MOL_PROPERTY
Delta U+W
SciTegic.value.DoubleValue
0.000

@<SCITEGIC>MOL_PROPERTY
U+W
SciTegic.value.DoubleValue
-15.865

@<SCITEGIC>MOL_PROPERTY
Grad RMS
SciTegic.value.DoubleValue
0.000000

@<SCITEGIC>MOL_PROPERTY
U
SciTegic.value.DoubleValue
44.664

@<SCITEGIC>MOL_PROPERTY
W
SciTegic.value.DoubleValue
-60.529

@<SCITEGIC>MOL_PROPERTY
W(PB)
SciTegic.value.DoubleValue
-62.309

@<SCITEGIC>MOL_PROPERTY
W(SA)
SciTegic.value.DoubleValue
1.780

@<SCITEGIC>MOL_PROPERTY
Valence
SciTegic.value.DoubleValue
0.872

@<SCITEGIC>MOL_PROPERTY
Coulomb
SciTegic.value.DoubleValue
43.648

@<SCITEGIC>MOL_PROPERTY
VdW
SciTegic.value.DoubleValue
0.144

@<SCITEGIC>MOL_PROPERTY
VdW6
SciTegic.value.DoubleValue
-2.370

@<SCITEGIC>MOL_PROPERTY
VdW12
SciTegic.value.DoubleValue
2.515

@<SCITEGIC>MOL_PROPERTY
Bond
SciTegic.value.DoubleValue
0.080

@<SCITEGIC>MOL_PROPERTY
Angle
SciTegic.value.DoubleValue
0.376

@<SCITEGIC>MOL_PROPERTY
Pdih
SciTegic.value.DoubleValue
0.416

@<SCITEGIC>MOL_PROPERTY
Idih
SciTegic.value.DoubleValue
0.000

@<SCITEGIC>MOL_PROPERTY
Tether
SciTegic.value.DoubleValue
0.000

@<TRIPOS>MOLECULE
guest-1_confgen4.mol2 : confsearch ligand conformer 680
          17          16           1
SMALL
USER_CHARGES
 
@<TRIPOS>ATOM
       1    N1      18.151379   17.973808   22.807616 N.4        1 MOL1        -0.5891
       2    H1      18.528731   17.123103   23.236049 H          1 MOL1         0.3726
       3    H2      17.601735   17.682199   21.993673 H          1 MOL1         0.3726
       4    H3      17.492350   18.377413   23.481134 H          1 MOL1         0.3726
       5    C1      19.245052   18.953850   22.432450 C.3        1 MOL1         0.0314
       6    H4      19.768016   19.243351   23.347931 H          1 MOL1         0.0999
       7    H5      18.768960   19.844078   22.013321 H          1 MOL1         0.0999
       8    C2      20.254068   18.378647   21.420033 C.3        1 MOL1        -0.1308
       9    H6      20.696862   17.462983   21.834004 H          1 MOL1         0.1025
      10    H7      19.728550   18.086336   20.501190 H          1 MOL1         0.1025
      11    C3      21.386548   19.374016   21.075455 C.3        1 MOL1        -0.1243
      12    H8      22.110927   18.876068   20.415679 H          1 MOL1         0.1025
      13    H9      21.934915   19.641994   21.989602 H          1 MOL1         0.1025
      14    C4      20.873133   20.657312   20.382985 C.3        1 MOL1        -0.2258
      15    H10     20.315549   20.416717   19.468470 H          1 MOL1         0.1036
      16    H11     21.713316   21.305476   20.101945 H          1 MOL1         0.1036
      17    H12     20.215292   21.236423   21.043262 H          1 MOL1         0.1036
@<TRIPOS>BOND
    1     1     2    1
    2     1     3    1
    3     1     4    1
    4     1     5    1
    5     5     6    1
    6     5     7    1
    7     5     8    1
    8     8     9    1
    9     8    10    1
   10     8    11    1
   11    11    12    1
   12    11    13    1
   13    11    14    1
   14    14    15    1
   15    14    16    1
   16    14    17    1
@<TRIPOS>SUBSTRUCTURE
       1 MOL1            1 RESIDUE      1      MOL     
@<SCITEGIC>MOL_PROPERTY
VConf Rank
SciTegic.value.IntegerValue
680

@<SCITEGIC>MOL_PROPERTY
Conf_Id
SciTegic.value.IntegerValue
36

@<SCITEGIC>MOL_PROPERTY
Delta U+W
SciTegic.value.DoubleValue
0.275

@<SCITEGIC>MOL_PROPERTY
U+W
SciTegic.value.DoubleValue
-15.590

@<SCITEGIC>MOL_PROPERTY
Grad RMS
SciTegic.value.DoubleValue
0.000000

@<SCITEGIC>MOL_PROPERTY
U
SciTegic.value.DoubleValue
45.174

@<SCITEGIC>MOL_PROPERTY
W
SciTegic.value.DoubleValue
-60.765

@<SCITEGIC>MOL_PROPERTY
W(PB)
SciTegic.value.DoubleValue
-62.518

@<SCITEGIC>MOL_PROPERTY
W(SA)
SciTegic.value.DoubleValue
1.754

@<SCITEGIC>MOL_PROPERTY
Valence
SciTegic.value.DoubleValue
1.161

@<SCITEGIC>MOL_PROPERTY
Coulomb
SciTegic.value.DoubleValue
43.789

@<SCITEGIC>MOL_PROPERTY
VdW
SciTegic.value.DoubleValue
0.224

@<SCITEGIC>MOL_PROPERTY
VdW6
SciTegic.value.DoubleValue
-2.897

@<SCITEGIC>MOL_PROPERTY
VdW12
SciTegic.value.DoubleValue
3.121

@<SCITEGIC>MOL_PROPERTY
Bond
SciTegic.value.DoubleValue
0.100

@<SCITEGIC>MOL_PROPERTY
Angle
SciTegic.value.DoubleValue
0.500

@<SCITEGIC>MOL_PROPERTY
Pdih
SciTegic.value.DoubleValue
0.561

@<SCITEGIC>MOL_PROPERTY
Idih
SciTegic.value.DoubleValue
0.000

@<SCITEGIC>MOL_PROPERTY
Tether
SciTegic.value.DoubleValue
0.000

@<TRIPOS>MOLECULE
guest-1_confgen4.mol2 : confsearch ligand conformer 681
          17          16           1
SMALL
USER_CHARGES
 
@<TRIPOS>ATOM
       1    N1      19.563196   19.626227   23.306213 N.4        1 MOL1        -0.5891
       2    H1      18.856546   19.930338   22.631670 H          1 MOL1         0.3726
       3    H2      20.195770   20.417728   23.457394 H          1 MOL1         0.3726
       4    H3      19.080503   19.457579   24.194688 H          1 MOL1         0.3726
       5    C1      20.306370   18.394784   22.825307 C.3        1 MOL1         0.0314
       6    H4      19.595727   17.567604   22.747458 H          1 MOL1         0.0999
       7    H5      21.037412   18.140534   23.597623 H          1 MOL1         0.0999
       8    C2      21.040059   18.581399   21.480506 C.3        1 MOL1        -0.1308
       9    H6      21.562716   19.547017   21.468635 H          1 MOL1         0.1025
      10    H7      21.823224   17.814280   21.417049 H          1 MOL1         0.1025
      11    C3      20.134879   18.442866   20.229841 C.3        1 MOL1        -0.1243
      12    H8      19.666897   17.448416   20.220639 H          1 MOL1         0.1025
      13    H9      20.771734   18.487163   19.335167 H          1 MOL1         0.1025
      14    C4      19.040892   19.528024   20.109396 C.3        1 MOL1        -0.2258
      15    H10     18.258387   19.396172   20.865687 H          1 MOL1         0.1036
      16    H11     18.553196   19.469334   19.127630 H          1 MOL1         0.1036
      17    H12     19.465691   20.535251   20.210360 H          1 MOL1         0.1036
@<TRIPOS>BOND
    1     1     2    1
    2     1     3    1
    3     1     4    1
    4     1     5    1
    5     5     6    1
    6     5     7    1
    7     5     8    1
    8     8     9    1
    9     8    10    1
   10     8    11    1
   11    11    12    1
   12    11    13    1
   13    11    14    1
   14    14    15    1
   15    14    16    1
   16    14    17    1
@<TRIPOS>SUBSTRUCTURE
       1 MOL1            1 RESIDUE      1      MOL     
@<SCITEGIC>MOL_PROPERTY
VConf Rank
SciTegic.value.IntegerValue
681

@<SCITEGIC>MOL_PROPERTY
Conf_Id
SciTegic.value.IntegerValue
19

@<SCITEGIC>MOL_PROPERTY
Delta U+W
SciTegic.value.DoubleValue
2.662

@<SCITEGIC>MOL_PROPERTY
U+W
SciTegic.value.DoubleValue
-13.203

@<SCITEGIC>MOL_PROPERTY
Grad RMS
SciTegic.value.DoubleValue
0.000000

@<SCITEGIC>MOL_PROPERTY
U
SciTegic.value.DoubleValue
47.423

@<SCITEGIC>MOL_PROPERTY
W
SciTegic.value.DoubleValue
-60.626

@<SCITEGIC>MOL_PROPERTY
W(PB)
SciTegic.value.DoubleValue
-62.328

@<SCITEGIC>MOL_PROPERTY
W(SA)
SciTegic.value.DoubleValue
1.702

@<SCITEGIC>MOL_PROPERTY
Valence
SciTegic.value.DoubleValue
2.414

@<SCITEGIC>MOL_PROPERTY
Coulomb
SciTegic.value.DoubleValue
44.831

@<SCITEGIC>MOL_PROPERTY
VdW
SciTegic.value.DoubleValue
0.178

@<SCITEGIC>MOL_PROPERTY
VdW6
SciTegic.value.DoubleValue
-3.743

@<SCITEGIC>MOL_PROPERTY
VdW12
SciTegic.value.DoubleValue
3.921

@<SCITEGIC>MOL_PROPERTY
Bond
SciTegic.value.DoubleValue
0.138

@<SCITEGIC>MOL_PROPERTY
Angle
SciTegic.value.DoubleValue
0.941

@<SCITEGIC>MOL_PROPERTY
Pdih
SciTegic.value.DoubleValue
1.335

@<SCITEGIC>MOL_PROPERTY
Idih
SciTegic.value.DoubleValue
0.000

@<SCITEGIC>MOL_PROPERTY
Tether
SciTegic.value.DoubleValue
0.000

@<TRIPOS>MOLECULE
guest-1_confgen4.mol2 : confsearch ligand conformer 682
          17          16           1
SMALL
USER_CHARGES
 
@<TRIPOS>ATOM
       1    N1      18.587485   18.870464   20.278818 N.4        1 MOL1        -0.5891
       2    H1      18.355768   18.477183   19.360961 H          1 MOL1         0.3726
       3    H2      17.838766   19.527468   20.518081 H          1 MOL1         0.3726
       4    H3      18.543168   18.104314   20.955497 H          1 MOL1         0.3726
       5    C1      19.947367   19.541850   20.277915 C.3        1 MOL1         0.0314
       6    H4      19.907977   20.342998   19.534849 H          1 MOL1         0.0999
       7    H5      20.694690   18.814047   19.950636 H          1 MOL1         0.0999
       8    C2      20.361014   20.138931   21.639533 C.3        1 MOL1        -0.1308
       9    H6      21.130400   20.899615   21.451781 H          1 MOL1         0.1025
      10    H7      19.513083   20.672743   22.088738 H          1 MOL1         0.1025
      11    C3      20.942812   19.110115   22.642405 C.3        1 MOL1        -0.1243
      12    H8      21.298931   19.654023   23.528595 H          1 MOL1         0.1025
      13    H9      21.828743   18.628286   22.205382 H          1 MOL1         0.1025
      14    C4      19.940263   18.026439   23.100032 C.3        1 MOL1        -0.2258
      15    H10     19.003180   18.474745   23.455066 H          1 MOL1         0.1036
      16    H11     20.363543   17.441322   23.926849 H          1 MOL1         0.1036
      17    H12     19.712024   17.322302   22.291467 H          1 MOL1         0.1036
@<TRIPOS>BOND
    1     1     2    1
    2     1     3    1
    3     1     4    1
    4     1     5    1
    5     5     6    1
    6     5     7    1
    7     5     8    1
    8     8     9    1
    9     8    10    1
   10     8    11    1
   11    11    12    1
   12    11    13    1
   13    11    14    1
   14    14    15    1
   15    14    16    1
   16    14    17    1
@<TRIPOS>SUBSTRUCTURE
       1 MOL1            1 RESIDUE      1      MOL     
@<SCITEGIC>MOL_PROPERTY
VConf Rank
SciTegic.value.IntegerValue
682

@<SCITEGIC>MOL_PROPERTY
Conf_Id
SciTegic.value.IntegerValue
44

@<SCITEGIC>MOL_PROPERTY
Delta U+W
SciTegic.value.DoubleValue
2.712

@<SCITEGIC>MOL_PROPERTY
U+W
SciTegic.value.DoubleValue
-13.153

@<SCITEGIC>MOL_PROPERTY
Grad RMS
SciTegic.value.DoubleValue
0.000000

@<SCITEGIC>MOL_PROPERTY
U
SciTegic.value.DoubleValue
47.423

@<SCITEGIC>MOL_PROPERTY
W
SciTegic.value.DoubleValue
-60.576

@<SCITEGIC>MOL_PROPERTY
W(PB)
SciTegic.value.DoubleValue
-62.262

@<SCITEGIC>MOL_PROPERTY
W(SA)
SciTegic.value.DoubleValue
1.687

@<SCITEGIC>MOL_PROPERTY
Valence
SciTegic.value.DoubleValue
2.414

@<SCITEGIC>MOL_PROPERTY
Coulomb
SciTegic.value.DoubleValue
44.831

@<SCITEGIC>MOL_PROPERTY
VdW
SciTegic.value.DoubleValue
0.178

@<SCITEGIC>MOL_PROPERTY
VdW6
SciTegic.value.DoubleValue
-3.743

@<SCITEGIC>MOL_PROPERTY
VdW12
SciTegic.value.DoubleValue
3.922

@<SCITEGIC>MOL_PROPERTY
Bond
SciTegic.value.DoubleValue
0.138

@<SCITEGIC>MOL_PROPERTY
Angle
SciTegic.value.DoubleValue
0.941

@<SCITEGIC>MOL_PROPERTY
Pdih
SciTegic.value.DoubleValue
1.335

@<SCITEGIC>MOL_PROPERTY
Idih
SciTegic.value.DoubleValue
0.000

@<SCITEGIC>MOL_PROPERTY
Tether
SciTegic.value.DoubleValue
0.000

@<TRIPOS>MOLECULE
guest-1_confgen4.mol2 : confsearch ligand conformer 683
          17          16           1
SMALL
USER_CHARGES
 
@<TRIPOS>ATOM
       1    N1      18.094079   18.951470   20.818902 N.4        1 MOL1        -0.5891
       2    H1      18.155887   18.211014   21.523423 H          1 MOL1         0.3726
       3    H2      18.098964   18.497115   19.900797 H          1 MOL1         0.3726
       4    H3      17.175121   19.392260   20.927931 H          1 MOL1         0.3726
       5    C1      19.221605   19.955902   20.959112 C.3        1 MOL1         0.0314
       6    H4      19.140231   20.422264   21.944348 H          1 MOL1         0.0999
       7    H5      19.071434   20.732561   20.204269 H          1 MOL1         0.0999
       8    C2      20.626804   19.342587   20.788290 C.3        1 MOL1        -0.1308
       9    H6      20.712465   18.912740   19.781492 H          1 MOL1         0.1025
      10    H7      21.370612   20.148692   20.840730 H          1 MOL1         0.1025
      11    C3      20.973930   18.260135   21.840601 C.3        1 MOL1        -0.1243
      12    H8      21.981193   17.873442   21.631330 H          1 MOL1         0.1025
      13    H9      20.293600   17.403605   21.739795 H          1 MOL1         0.1025
      14    C4      20.931315   18.790875   23.291910 C.3        1 MOL1        -0.2258
      15    H10     21.605123   19.648215   23.418478 H          1 MOL1         0.1036
      16    H11     21.246654   18.010571   23.996647 H          1 MOL1         0.1036
      17    H12     19.919625   19.105316   23.577494 H          1 MOL1         0.1036
@<TRIPOS>BOND
    1     1     2    1
    2     1     3    1
    3     1     4    1
    4     1     5    1
    5     5     6    1
    6     5     7    1
    7     5     8    1
    8     8     9    1
    9     8    10    1
   10     8    11    1
   11    11    12    1
   12    11    13    1
   13    11    14    1
   14    14    15    1
   15    14    16    1
   16    14    17    1
@<TRIPOS>SUBSTRUCTURE
       1 MOL1            1 RESIDUE      1      MOL     
@<SCITEGIC>MOL_PROPERTY
VConf Rank
SciTegic.value.IntegerValue
683

@<SCITEGIC>MOL_PROPERTY
Conf_Id
SciTegic.value.IntegerValue
1

@<SCITEGIC>MOL_PROPERTY
Delta U+W
SciTegic.value.DoubleValue
0.685

@<SCITEGIC>MOL_PROPERTY
U+W
SciTegic.value.DoubleValue
-15.179

@<SCITEGIC>MOL_PROPERTY
Grad RMS
SciTegic.value.DoubleValue
0.000000

@<SCITEGIC>MOL_PROPERTY
U
SciTegic.value.DoubleValue
45.697

@<SCITEGIC>MOL_PROPERTY
W
SciTegic.value.DoubleValue
-60.876

@<SCITEGIC>MOL_PROPERTY
W(PB)
SciTegic.value.DoubleValue
-62.586

@<SCITEGIC>MOL_PROPERTY
W(SA)
SciTegic.value.DoubleValue
1.710

@<SCITEGIC>MOL_PROPERTY
Valence
SciTegic.value.DoubleValue
1.263

@<SCITEGIC>MOL_PROPERTY
Coulomb
SciTegic.value.DoubleValue
44.179

@<SCITEGIC>MOL_PROPERTY
VdW
SciTegic.value.DoubleValue
0.255

@<SCITEGIC>MOL_PROPERTY
VdW6
SciTegic.value.DoubleValue
-3.552

@<SCITEGIC>MOL_PROPERTY
VdW12
SciTegic.value.DoubleValue
3.807

@<SCITEGIC>MOL_PROPERTY
Bond
SciTegic.value.DoubleValue
0.125

@<SCITEGIC>MOL_PROPERTY
Angle
SciTegic.value.DoubleValue
0.616

@<SCITEGIC>MOL_PROPERTY
Pdih
SciTegic.value.DoubleValue
0.521

@<SCITEGIC>MOL_PROPERTY
Idih
SciTegic.value.DoubleValue
0.000

@<SCITEGIC>MOL_PROPERTY
Tether
SciTegic.value.DoubleValue
0.000

@<TRIPOS>MOLECULE
guest-1_confgen4.mol2 : confsearch ligand conformer 684
          17          16           1
SMALL
USER_CHARGES
 
@<TRIPOS>ATOM
       1    N1      20.081944   20.234878   20.027981 N.4        1 MOL1        -0.5891
       2    H1      20.556035   21.109888   20.270826 H          1 MOL1         0.3726
       3    H2      19.119050   20.307679   20.368544 H          1 MOL1         0.3726
       4    H3      20.035269   20.195724   19.004772 H          1 MOL1         0.3726
       5    C1      20.792743   19.026738   20.606791 C.3        1 MOL1         0.0314
       6    H4      21.795924   18.991311   20.173303 H          1 MOL1         0.0999
       7    H5      20.254690   18.130715   20.286717 H          1 MOL1         0.0999
       8    C2      20.901689   19.046316   22.145513 C.3        1 MOL1        -0.1308
       9    H6      21.483149   18.172265   22.467604 H          1 MOL1         0.1025
      10    H7      21.478556   19.927978   22.454778 H          1 MOL1         0.1025
      11    C3      19.534604   19.045081   22.873961 C.3        1 MOL1        -0.1243
      12    H8      18.977602   19.960724   22.633128 H          1 MOL1         0.1025
      13    H9      19.711502   19.074259   23.958286 H          1 MOL1         0.1025
      14    C4      18.671226   17.807225   22.539164 C.3        1 MOL1        -0.2258
      15    H10     17.743264   17.815034   23.125502 H          1 MOL1         0.1036
      16    H11     19.206722   16.877805   22.772590 H          1 MOL1         0.1036
      17    H12     18.392017   17.784419   21.478282 H          1 MOL1         0.1036
@<TRIPOS>BOND
    1     1     2    1
    2     1     3    1
    3     1     4    1
    4     1     5    1
    5     5     6    1
    6     5     7    1
    7     5     8    1
    8     8     9    1
    9     8    10    1
   10     8    11    1
   11    11    12    1
   12    11    13    1
   13    11    14    1
   14    14    15    1
   15    14    16    1
   16    14    17    1
@<TRIPOS>SUBSTRUCTURE
       1 MOL1            1 RESIDUE      1      MOL     
@<SCITEGIC>MOL_PROPERTY
VConf Rank
SciTegic.value.IntegerValue
684

@<SCITEGIC>MOL_PROPERTY
Conf_Id
SciTegic.value.IntegerValue
43

@<SCITEGIC>MOL_PROPERTY
Delta U+W
SciTegic.value.DoubleValue
0.642

@<SCITEGIC>MOL_PROPERTY
U+W
SciTegic.value.DoubleValue
-15.222

@<SCITEGIC>MOL_PROPERTY
Grad RMS
SciTegic.value.DoubleValue
0.000000

@<SCITEGIC>MOL_PROPERTY
U
SciTegic.value.DoubleValue
45.697

@<SCITEGIC>MOL_PROPERTY
W
SciTegic.value.DoubleValue
-60.919

@<SCITEGIC>MOL_PROPERTY
W(PB)
SciTegic.value.DoubleValue
-62.631

@<SCITEGIC>MOL_PROPERTY
W(SA)
SciTegic.value.DoubleValue
1.712

@<SCITEGIC>MOL_PROPERTY
Valence
SciTegic.value.DoubleValue
1.262

@<SCITEGIC>MOL_PROPERTY
Coulomb
SciTegic.value.DoubleValue
44.179

@<SCITEGIC>MOL_PROPERTY
VdW
SciTegic.value.DoubleValue
0.255

@<SCITEGIC>MOL_PROPERTY
VdW6
SciTegic.value.DoubleValue
-3.552

@<SCITEGIC>MOL_PROPERTY
VdW12
SciTegic.value.DoubleValue
3.807

@<SCITEGIC>MOL_PROPERTY
Bond
SciTegic.value.DoubleValue
0.125

@<SCITEGIC>MOL_PROPERTY
Angle
SciTegic.value.DoubleValue
0.616

@<SCITEGIC>MOL_PROPERTY
Pdih
SciTegic.value.DoubleValue
0.521

@<SCITEGIC>MOL_PROPERTY
Idih
SciTegic.value.DoubleValue
0.000

@<SCITEGIC>MOL_PROPERTY
Tether
SciTegic.value.DoubleValue
0.000

@<TRIPOS>MOLECULE
guest-1_confgen4.mol2 : confsearch ligand conformer 685
          17          16           1
SMALL
USER_CHARGES
 
@<TRIPOS>ATOM
       1    N1      20.009562   21.605564   21.934854 N.4        1 MOL1        -0.5891
       2    H1      19.650860   21.621472   22.894424 H          1 MOL1         0.3726
       3    H2      19.225639   21.836457   21.316913 H          1 MOL1         0.3726
       4    H3      20.683731   22.373988   21.857854 H          1 MOL1         0.3726
       5    C1      20.634805   20.270067   21.584316 C.3        1 MOL1         0.0314
       6    H4      21.478430   20.104570   22.259913 H          1 MOL1         0.0999
       7    H5      21.021224   20.335760   20.563587 H          1 MOL1         0.0999
       8    C2      19.648884   19.092293   21.689529 C.3        1 MOL1        -0.1308
       9    H6      19.251213   19.038975   22.711784 H          1 MOL1         0.1025
      10    H7      18.795663   19.269295   21.021193 H          1 MOL1         0.1025
      11    C3      20.325218   17.752504   21.324756 C.3        1 MOL1        -0.1243
      12    H8      21.181401   17.576371   21.991280 H          1 MOL1         0.1025
      13    H9      20.726341   17.806375   20.302737 H          1 MOL1         0.1025
      14    C4      19.342220   16.566338   21.428106 C.3        1 MOL1        -0.2258
      15    H10     19.841595   15.624740   21.165304 H          1 MOL1         0.1036
      16    H11     18.491507   16.697327   20.746682 H          1 MOL1         0.1036
      17    H12     18.950116   16.465552   22.448549 H          1 MOL1         0.1036
@<TRIPOS>BOND
    1     1     2    1
    2     1     3    1
    3     1     4    1
    4     1     5    1
    5     5     6    1
    6     5     7    1
    7     5     8    1
    8     8     9    1
    9     8    10    1
   10     8    11    1
   11    11    12    1
   12    11    13    1
   13    11    14    1
   14    14    15    1
   15    14    16    1
   16    14    17    1
@<TRIPOS>SUBSTRUCTURE
       1 MOL1            1 RESIDUE      1      MOL     
@<SCITEGIC>MOL_PROPERTY
VConf Rank
SciTegic.value.IntegerValue
685

@<SCITEGIC>MOL_PROPERTY
Conf_Id
SciTegic.value.IntegerValue
7

@<SCITEGIC>MOL_PROPERTY
Delta U+W
SciTegic.value.DoubleValue
0.000

@<SCITEGIC>MOL_PROPERTY
U+W
SciTegic.value.DoubleValue
-15.865

@<SCITEGIC>MOL_PROPERTY
Grad RMS
SciTegic.value.DoubleValue
0.000000

@<SCITEGIC>MOL_PROPERTY
U
SciTegic.value.DoubleValue
44.664

@<SCITEGIC>MOL_PROPERTY
W
SciTegic.value.DoubleValue
-60.529

@<SCITEGIC>MOL_PROPERTY
W(PB)
SciTegic.value.DoubleValue
-62.309

@<SCITEGIC>MOL_PROPERTY
W(SA)
SciTegic.value.DoubleValue
1.780

@<SCITEGIC>MOL_PROPERTY
Valence
SciTegic.value.DoubleValue
0.872

@<SCITEGIC>MOL_PROPERTY
Coulomb
SciTegic.value.DoubleValue
43.648

@<SCITEGIC>MOL_PROPERTY
VdW
SciTegic.value.DoubleValue
0.144

@<SCITEGIC>MOL_PROPERTY
VdW6
SciTegic.value.DoubleValue
-2.370

@<SCITEGIC>MOL_PROPERTY
VdW12
SciTegic.value.DoubleValue
2.515

@<SCITEGIC>MOL_PROPERTY
Bond
SciTegic.value.DoubleValue
0.080

@<SCITEGIC>MOL_PROPERTY
Angle
SciTegic.value.DoubleValue
0.376

@<SCITEGIC>MOL_PROPERTY
Pdih
SciTegic.value.DoubleValue
0.416

@<SCITEGIC>MOL_PROPERTY
Idih
SciTegic.value.DoubleValue
0.000

@<SCITEGIC>MOL_PROPERTY
Tether
SciTegic.value.DoubleValue
0.000

@<TRIPOS>MOLECULE
guest-1_confgen4.mol2 : confsearch ligand conformer 686
          17          16           1
SMALL
USER_CHARGES
 
@<TRIPOS>ATOM
       1    N1      19.836860   20.882203   19.998833 N.4        1 MOL1        -0.5891
       2    H1      19.229253   21.623463   20.360768 H          1 MOL1         0.3726
       3    H2      19.307991   20.386694   19.274668 H          1 MOL1         0.3726
       4    H3      20.621158   21.345337   19.528486 H          1 MOL1         0.3726
       5    C1      20.309024   19.948819   21.095742 C.3        1 MOL1         0.0314
       6    H4      20.888162   20.536283   21.813303 H          1 MOL1         0.0999
       7    H5      20.973453   19.208022   20.643423 H          1 MOL1         0.0999
       8    C2      19.153954   19.235068   21.823982 C.3        1 MOL1        -0.1308
       9    H6      18.471263   19.987802   22.240158 H          1 MOL1         0.1025
      10    H7      18.571293   18.646376   21.102985 H          1 MOL1         0.1025
      11    C3      19.646418   18.316012   22.966269 C.3        1 MOL1        -0.1243
      12    H8      18.774704   17.903102   23.493148 H          1 MOL1         0.1025
      13    H9      20.201595   18.909823   23.706099 H          1 MOL1         0.1025
      14    C4      20.531224   17.151272   22.465812 C.3        1 MOL1        -0.2258
      15    H10     20.001296   16.544852   21.719786 H          1 MOL1         0.1036
      16    H11     20.806582   16.491619   23.298905 H          1 MOL1         0.1036
      17    H12     21.461151   17.517025   22.012435 H          1 MOL1         0.1036
@<TRIPOS>BOND
    1     1     2    1
    2     1     3    1
    3     1     4    1
    4     1     5    1
    5     5     6    1
    6     5     7    1
    7     5     8    1
    8     8     9    1
    9     8    10    1
   10     8    11    1
   11    11    12    1
   12    11    13    1
   13    11    14    1
   14    14    15    1
   15    14    16    1
   16    14    17    1
@<TRIPOS>SUBSTRUCTURE
       1 MOL1            1 RESIDUE      1      MOL     
@<SCITEGIC>MOL_PROPERTY
VConf Rank
SciTegic.value.IntegerValue
686

@<SCITEGIC>MOL_PROPERTY
Conf_Id
SciTegic.value.IntegerValue
36

@<SCITEGIC>MOL_PROPERTY
Delta U+W
SciTegic.value.DoubleValue
0.275

@<SCITEGIC>MOL_PROPERTY
U+W
SciTegic.value.DoubleValue
-15.590

@<SCITEGIC>MOL_PROPERTY
Grad RMS
SciTegic.value.DoubleValue
0.000000

@<SCITEGIC>MOL_PROPERTY
U
SciTegic.value.DoubleValue
45.174

@<SCITEGIC>MOL_PROPERTY
W
SciTegic.value.DoubleValue
-60.765

@<SCITEGIC>MOL_PROPERTY
W(PB)
SciTegic.value.DoubleValue
-62.518

@<SCITEGIC>MOL_PROPERTY
W(SA)
SciTegic.value.DoubleValue
1.754

@<SCITEGIC>MOL_PROPERTY
Valence
SciTegic.value.DoubleValue
1.161

@<SCITEGIC>MOL_PROPERTY
Coulomb
SciTegic.value.DoubleValue
43.789

@<SCITEGIC>MOL_PROPERTY
VdW
SciTegic.value.DoubleValue
0.224

@<SCITEGIC>MOL_PROPERTY
VdW6
SciTegic.value.DoubleValue
-2.897

@<SCITEGIC>MOL_PROPERTY
VdW12
SciTegic.value.DoubleValue
3.121

@<SCITEGIC>MOL_PROPERTY
Bond
SciTegic.value.DoubleValue
0.100

@<SCITEGIC>MOL_PROPERTY
Angle
SciTegic.value.DoubleValue
0.500

@<SCITEGIC>MOL_PROPERTY
Pdih
SciTegic.value.DoubleValue
0.561

@<SCITEGIC>MOL_PROPERTY
Idih
SciTegic.value.DoubleValue
0.000

@<SCITEGIC>MOL_PROPERTY
Tether
SciTegic.value.DoubleValue
0.000

@<TRIPOS>MOLECULE
guest-1_confgen4.mol2 : confsearch ligand conformer 687
          17          16           1
SMALL
USER_CHARGES
 
@<TRIPOS>ATOM
       1    N1      21.761834   19.159999   21.918396 N.4        1 MOL1        -0.5891
       2    H1      21.253057   18.950690   22.781056 H          1 MOL1         0.3726
       3    H2      21.954951   20.166073   21.919035 H          1 MOL1         0.3726
       4    H3      22.667465   18.683459   21.978109 H          1 MOL1         0.3726
       5    C1      20.981622   18.736749   20.688698 C.3        1 MOL1         0.0314
       6    H4      20.864894   17.649862   20.707536 H          1 MOL1         0.0999
       7    H5      21.590829   18.996039   19.818541 H          1 MOL1         0.0999
       8    C2      19.598849   19.408304   20.552440 C.3        1 MOL1        -0.1308
       9    H6      19.677489   20.479577   20.780298 H          1 MOL1         0.1025
      10    H7      19.298747   19.345953   19.497975 H          1 MOL1         0.1025
      11    C3      18.480808   18.756312   21.405432 C.3        1 MOL1        -0.1243
      12    H8      18.369145   17.699941   21.123240 H          1 MOL1         0.1025
      13    H9      17.526739   19.240442   21.153720 H          1 MOL1         0.1025
      14    C4      18.698272   18.861370   22.932048 C.3        1 MOL1        -0.2258
      15    H10     19.522773   18.220805   23.266038 H          1 MOL1         0.1036
      16    H11     17.798091   18.533478   23.468069 H          1 MOL1         0.1036
      17    H12     18.907633   19.895664   23.234630 H          1 MOL1         0.1036
@<TRIPOS>BOND
    1     1     2    1
    2     1     3    1
    3     1     4    1
    4     1     5    1
    5     5     6    1
    6     5     7    1
    7     5     8    1
    8     8     9    1
    9     8    10    1
   10     8    11    1
   11    11    12    1
   12    11    13    1
   13    11    14    1
   14    14    15    1
   15    14    16    1
   16    14    17    1
@<TRIPOS>SUBSTRUCTURE
       1 MOL1            1 RESIDUE      1      MOL     
@<SCITEGIC>MOL_PROPERTY
VConf Rank
SciTegic.value.IntegerValue
687

@<SCITEGIC>MOL_PROPERTY
Conf_Id
SciTegic.value.IntegerValue
19

@<SCITEGIC>MOL_PROPERTY
Delta U+W
SciTegic.value.DoubleValue
2.662

@<SCITEGIC>MOL_PROPERTY
U+W
SciTegic.value.DoubleValue
-13.203

@<SCITEGIC>MOL_PROPERTY
Grad RMS
SciTegic.value.DoubleValue
0.000000

@<SCITEGIC>MOL_PROPERTY
U
SciTegic.value.DoubleValue
47.423

@<SCITEGIC>MOL_PROPERTY
W
SciTegic.value.DoubleValue
-60.626

@<SCITEGIC>MOL_PROPERTY
W(PB)
SciTegic.value.DoubleValue
-62.328

@<SCITEGIC>MOL_PROPERTY
W(SA)
SciTegic.value.DoubleValue
1.702

@<SCITEGIC>MOL_PROPERTY
Valence
SciTegic.value.DoubleValue
2.414

@<SCITEGIC>MOL_PROPERTY
Coulomb
SciTegic.value.DoubleValue
44.831

@<SCITEGIC>MOL_PROPERTY
VdW
SciTegic.value.DoubleValue
0.178

@<SCITEGIC>MOL_PROPERTY
VdW6
SciTegic.value.DoubleValue
-3.743

@<SCITEGIC>MOL_PROPERTY
VdW12
SciTegic.value.DoubleValue
3.921

@<SCITEGIC>MOL_PROPERTY
Bond
SciTegic.value.DoubleValue
0.138

@<SCITEGIC>MOL_PROPERTY
Angle
SciTegic.value.DoubleValue
0.941

@<SCITEGIC>MOL_PROPERTY
Pdih
SciTegic.value.DoubleValue
1.335

@<SCITEGIC>MOL_PROPERTY
Idih
SciTegic.value.DoubleValue
0.000

@<SCITEGIC>MOL_PROPERTY
Tether
SciTegic.value.DoubleValue
0.000

@<TRIPOS>MOLECULE
guest-1_confgen4.mol2 : confsearch ligand conformer 688
          17          16           1
SMALL
USER_CHARGES
 
@<TRIPOS>ATOM
       1    N1      20.698011   17.517623   20.965555 N.4        1 MOL1        -0.5891
       2    H1      21.530863   16.920446   20.989259 H          1 MOL1         0.3726
       3    H2      20.123248   17.194813   20.181385 H          1 MOL1         0.3726
       4    H3      20.169593   17.332954   21.822011 H          1 MOL1         0.3726
       5    C1      21.059248   18.984590   20.833064 C.3        1 MOL1         0.0314
       6    H4      21.615675   19.093740   19.898179 H          1 MOL1         0.0999
       7    H5      21.725906   19.254669   21.656427 H          1 MOL1         0.0999
       8    C2      19.845390   19.937281   20.809830 C.3        1 MOL1        -0.1308
       9    H6      20.166477   20.877443   20.342023 H          1 MOL1         0.1025
      10    H7      19.060506   19.529772   20.158966 H          1 MOL1         0.1025
      11    C3      19.265823   20.274079   22.207461 C.3        1 MOL1        -0.1243
      12    H8      18.481956   21.034367   22.082948 H          1 MOL1         0.1025
      13    H9      20.044477   20.739402   22.828102 H          1 MOL1         0.1025
      14    C4      18.663526   19.064559   22.957914 C.3        1 MOL1        -0.2258
      15    H10     17.948699   18.519917   22.327406 H          1 MOL1         0.1036
      16    H11     18.127082   19.401708   23.854415 H          1 MOL1         0.1036
      17    H12     19.442732   18.369482   23.291660 H          1 MOL1         0.1036
@<TRIPOS>BOND
    1     1     2    1
    2     1     3    1
    3     1     4    1
    4     1     5    1
    5     5     6    1
    6     5     7    1
    7     5     8    1
    8     8     9    1
    9     8    10    1
   10     8    11    1
   11    11    12    1
   12    11    13    1
   13    11    14    1
   14    14    15    1
   15    14    16    1
   16    14    17    1
@<TRIPOS>SUBSTRUCTURE
       1 MOL1            1 RESIDUE      1      MOL     
@<SCITEGIC>MOL_PROPERTY
VConf Rank
SciTegic.value.IntegerValue
688

@<SCITEGIC>MOL_PROPERTY
Conf_Id
SciTegic.value.IntegerValue
44

@<SCITEGIC>MOL_PROPERTY
Delta U+W
SciTegic.value.DoubleValue
2.712

@<SCITEGIC>MOL_PROPERTY
U+W
SciTegic.value.DoubleValue
-13.153

@<SCITEGIC>MOL_PROPERTY
Grad RMS
SciTegic.value.DoubleValue
0.000000

@<SCITEGIC>MOL_PROPERTY
U
SciTegic.value.DoubleValue
47.423

@<SCITEGIC>MOL_PROPERTY
W
SciTegic.value.DoubleValue
-60.576

@<SCITEGIC>MOL_PROPERTY
W(PB)
SciTegic.value.DoubleValue
-62.262

@<SCITEGIC>MOL_PROPERTY
W(SA)
SciTegic.value.DoubleValue
1.687

@<SCITEGIC>MOL_PROPERTY
Valence
SciTegic.value.DoubleValue
2.414

@<SCITEGIC>MOL_PROPERTY
Coulomb
SciTegic.value.DoubleValue
44.831

@<SCITEGIC>MOL_PROPERTY
VdW
SciTegic.value.DoubleValue
0.178

@<SCITEGIC>MOL_PROPERTY
VdW6
SciTegic.value.DoubleValue
-3.743

@<SCITEGIC>MOL_PROPERTY
VdW12
SciTegic.value.DoubleValue
3.922

@<SCITEGIC>MOL_PROPERTY
Bond
SciTegic.value.DoubleValue
0.138

@<SCITEGIC>MOL_PROPERTY
Angle
SciTegic.value.DoubleValue
0.941

@<SCITEGIC>MOL_PROPERTY
Pdih
SciTegic.value.DoubleValue
1.335

@<SCITEGIC>MOL_PROPERTY
Idih
SciTegic.value.DoubleValue
0.000

@<SCITEGIC>MOL_PROPERTY
Tether
SciTegic.value.DoubleValue
0.000

@<TRIPOS>MOLECULE
guest-1_confgen4.mol2 : confsearch ligand conformer 689
          17          16           1
SMALL
USER_CHARGES
 
@<TRIPOS>ATOM
       1    N1      18.896974   20.738662   21.709126 N.4        1 MOL1        -0.5891
       2    H1      19.176429   20.618188   20.731456 H          1 MOL1         0.3726
       3    H2      19.467744   21.496190   22.096103 H          1 MOL1         0.3726
       4    H3      17.926849   21.069574   21.704420 H          1 MOL1         0.3726
       5    C1      19.050774   19.453751   22.499827 C.3        1 MOL1         0.0314
       6    H4      18.396246   18.700363   22.053953 H          1 MOL1         0.0999
       7    H5      18.700893   19.645369   23.517867 H          1 MOL1         0.0999
       8    C2      20.498152   18.922134   22.548806 C.3        1 MOL1        -0.1308
       9    H6      21.140074   19.668770   23.034831 H          1 MOL1         0.1025
      10    H7      20.523882   18.032166   23.191534 H          1 MOL1         0.1025
      11    C3      21.085412   18.564903   21.160617 C.3        1 MOL1        -0.1243
      12    H8      22.117552   18.211424   21.293454 H          1 MOL1         0.1025
      13    H9      21.151781   19.465741   20.535525 H          1 MOL1         0.1025
      14    C4      20.273259   17.476916   20.421368 C.3        1 MOL1        -0.2258
      15    H10     20.193601   16.564512   21.026547 H          1 MOL1         0.1036
      16    H11     20.760568   17.209169   19.474896 H          1 MOL1         0.1036
      17    H12     19.258452   17.820931   20.185217 H          1 MOL1         0.1036
@<TRIPOS>BOND
    1     1     2    1
    2     1     3    1
    3     1     4    1
    4     1     5    1
    5     5     6    1
    6     5     7    1
    7     5     8    1
    8     8     9    1
    9     8    10    1
   10     8    11    1
   11    11    12    1
   12    11    13    1
   13    11    14    1
   14    14    15    1
   15    14    16    1
   16    14    17    1
@<TRIPOS>SUBSTRUCTURE
       1 MOL1            1 RESIDUE      1      MOL     
@<SCITEGIC>MOL_PROPERTY
VConf Rank
SciTegic.value.IntegerValue
689

@<SCITEGIC>MOL_PROPERTY
Conf_Id
SciTegic.value.IntegerValue
1

@<SCITEGIC>MOL_PROPERTY
Delta U+W
SciTegic.value.DoubleValue
0.685

@<SCITEGIC>MOL_PROPERTY
U+W
SciTegic.value.DoubleValue
-15.179

@<SCITEGIC>MOL_PROPERTY
Grad RMS
SciTegic.value.DoubleValue
0.000000

@<SCITEGIC>MOL_PROPERTY
U
SciTegic.value.DoubleValue
45.697

@<SCITEGIC>MOL_PROPERTY
W
SciTegic.value.DoubleValue
-60.876

@<SCITEGIC>MOL_PROPERTY
W(PB)
SciTegic.value.DoubleValue
-62.586

@<SCITEGIC>MOL_PROPERTY
W(SA)
SciTegic.value.DoubleValue
1.710

@<SCITEGIC>MOL_PROPERTY
Valence
SciTegic.value.DoubleValue
1.263

@<SCITEGIC>MOL_PROPERTY
Coulomb
SciTegic.value.DoubleValue
44.179

@<SCITEGIC>MOL_PROPERTY
VdW
SciTegic.value.DoubleValue
0.255

@<SCITEGIC>MOL_PROPERTY
VdW6
SciTegic.value.DoubleValue
-3.552

@<SCITEGIC>MOL_PROPERTY
VdW12
SciTegic.value.DoubleValue
3.807

@<SCITEGIC>MOL_PROPERTY
Bond
SciTegic.value.DoubleValue
0.125

@<SCITEGIC>MOL_PROPERTY
Angle
SciTegic.value.DoubleValue
0.616

@<SCITEGIC>MOL_PROPERTY
Pdih
SciTegic.value.DoubleValue
0.521

@<SCITEGIC>MOL_PROPERTY
Idih
SciTegic.value.DoubleValue
0.000

@<SCITEGIC>MOL_PROPERTY
Tether
SciTegic.value.DoubleValue
0.000

@<TRIPOS>MOLECULE
guest-1_confgen4.mol2 : confsearch ligand conformer 690
          17          16           1
SMALL
USER_CHARGES
 
@<TRIPOS>ATOM
       1    N1      18.798080   20.395259   20.699412 N.4        1 MOL1        -0.5891
       2    H1      18.318196   20.993541   21.378490 H          1 MOL1         0.3726
       3    H2      18.285993   19.509388   20.661368 H          1 MOL1         0.3726
       4    H3      18.692488   20.841511   19.782691 H          1 MOL1         0.3726
       5    C1      20.256124   20.186289   21.060378 C.3        1 MOL1         0.0314
       6    H4      20.746226   21.163588   21.045388 H          1 MOL1         0.0999
       7    H5      20.712819   19.567498   20.283632 H          1 MOL1         0.0999
       8    C2      20.468150   19.529733   22.440196 C.3        1 MOL1        -0.1308
       9    H6      21.546186   19.477893   22.642567 H          1 MOL1         0.1025
      10    H7      20.042190   20.178270   23.217181 H          1 MOL1         0.1025
      11    C3      19.858100   18.111201   22.563342 C.3        1 MOL1        -0.1243
      12    H8      18.766090   18.159036   22.454349 H          1 MOL1         0.1025
      13    H9      20.045144   17.732529   23.577998 H          1 MOL1         0.1025
      14    C4      20.440252   17.110676   21.538723 C.3        1 MOL1        -0.2258
      15    H10     20.029128   16.106501   21.704788 H          1 MOL1         0.1036
      16    H11     21.532295   17.044243   21.628707 H          1 MOL1         0.1036
      17    H12     20.198527   17.400883   20.508530 H          1 MOL1         0.1036
@<TRIPOS>BOND
    1     1     2    1
    2     1     3    1
    3     1     4    1
    4     1     5    1
    5     5     6    1
    6     5     7    1
    7     5     8    1
    8     8     9    1
    9     8    10    1
   10     8    11    1
   11    11    12    1
   12    11    13    1
   13    11    14    1
   14    14    15    1
   15    14    16    1
   16    14    17    1
@<TRIPOS>SUBSTRUCTURE
       1 MOL1            1 RESIDUE      1      MOL     
@<SCITEGIC>MOL_PROPERTY
VConf Rank
SciTegic.value.IntegerValue
690

@<SCITEGIC>MOL_PROPERTY
Conf_Id
SciTegic.value.IntegerValue
43

@<SCITEGIC>MOL_PROPERTY
Delta U+W
SciTegic.value.DoubleValue
0.642

@<SCITEGIC>MOL_PROPERTY
U+W
SciTegic.value.DoubleValue
-15.222

@<SCITEGIC>MOL_PROPERTY
Grad RMS
SciTegic.value.DoubleValue
0.000000

@<SCITEGIC>MOL_PROPERTY
U
SciTegic.value.DoubleValue
45.697

@<SCITEGIC>MOL_PROPERTY
W
SciTegic.value.DoubleValue
-60.919

@<SCITEGIC>MOL_PROPERTY
W(PB)
SciTegic.value.DoubleValue
-62.631

@<SCITEGIC>MOL_PROPERTY
W(SA)
SciTegic.value.DoubleValue
1.712

@<SCITEGIC>MOL_PROPERTY
Valence
SciTegic.value.DoubleValue
1.262

@<SCITEGIC>MOL_PROPERTY
Coulomb
SciTegic.value.DoubleValue
44.179

@<SCITEGIC>MOL_PROPERTY
VdW
SciTegic.value.DoubleValue
0.255

@<SCITEGIC>MOL_PROPERTY
VdW6
SciTegic.value.DoubleValue
-3.552

@<SCITEGIC>MOL_PROPERTY
VdW12
SciTegic.value.DoubleValue
3.807

@<SCITEGIC>MOL_PROPERTY
Bond
SciTegic.value.DoubleValue
0.125

@<SCITEGIC>MOL_PROPERTY
Angle
SciTegic.value.DoubleValue
0.616

@<SCITEGIC>MOL_PROPERTY
Pdih
SciTegic.value.DoubleValue
0.521

@<SCITEGIC>MOL_PROPERTY
Idih
SciTegic.value.DoubleValue
0.000

@<SCITEGIC>MOL_PROPERTY
Tether
SciTegic.value.DoubleValue
0.000

@<TRIPOS>MOLECULE
guest-1_confgen4.mol2 : confsearch ligand conformer 691
          17          16           1
SMALL
USER_CHARGES
 
@<TRIPOS>ATOM
       1    N1      22.333501   18.463450   22.364098 N.4        1 MOL1        -0.5891
       2    H1      22.082599   18.042726   23.263951 H          1 MOL1         0.3726
       3    H2      22.654594   19.417046   22.557101 H          1 MOL1         0.3726
       4    H3      23.143321   17.944205   22.009861 H          1 MOL1         0.3726
       5    C1      21.177131   18.440887   21.384477 C.3        1 MOL1         0.0314
       6    H4      20.909042   17.396569   21.202677 H          1 MOL1         0.0999
       7    H5      21.524134   18.874370   20.442561 H          1 MOL1         0.0999
       8    C2      19.942538   19.212371   21.885330 C.3        1 MOL1        -0.1308
       9    H6      19.606288   18.784140   22.839031 H          1 MOL1         0.1025
      10    H7      20.219224   20.256879   22.081388 H          1 MOL1         0.1025
      11    C3      18.789280   19.164385   20.859069 C.3        1 MOL1        -0.1243
      12    H8      18.514101   18.118950   20.659900 H          1 MOL1         0.1025
      13    H9      19.126255   19.589952   19.903210 H          1 MOL1         0.1025
      14    C4      17.547263   19.936198   21.354705 C.3        1 MOL1        -0.2258
      15    H10     16.740107   19.890064   20.612129 H          1 MOL1         0.1036
      16    H11     17.782986   20.994019   21.529797 H          1 MOL1         0.1036
      17    H12     17.166042   19.511434   22.292497 H          1 MOL1         0.1036
@<TRIPOS>BOND
    1     1     2    1
    2     1     3    1
    3     1     4    1
    4     1     5    1
    5     5     6    1
    6     5     7    1
    7     5     8    1
    8     8     9    1
    9     8    10    1
   10     8    11    1
   11    11    12    1
   12    11    13    1
   13    11    14    1
   14    14    15    1
   15    14    16    1
   16    14    17    1
@<TRIPOS>SUBSTRUCTURE
       1 MOL1            1 RESIDUE      1      MOL     
@<SCITEGIC>MOL_PROPERTY
VConf Rank
SciTegic.value.IntegerValue
691

@<SCITEGIC>MOL_PROPERTY
Conf_Id
SciTegic.value.IntegerValue
7

@<SCITEGIC>MOL_PROPERTY
Delta U+W
SciTegic.value.DoubleValue
0.000

@<SCITEGIC>MOL_PROPERTY
U+W
SciTegic.value.DoubleValue
-15.865

@<SCITEGIC>MOL_PROPERTY
Grad RMS
SciTegic.value.DoubleValue
0.000000

@<SCITEGIC>MOL_PROPERTY
U
SciTegic.value.DoubleValue
44.664

@<SCITEGIC>MOL_PROPERTY
W
SciTegic.value.DoubleValue
-60.529

@<SCITEGIC>MOL_PROPERTY
W(PB)
SciTegic.value.DoubleValue
-62.309

@<SCITEGIC>MOL_PROPERTY
W(SA)
SciTegic.value.DoubleValue
1.780

@<SCITEGIC>MOL_PROPERTY
Valence
SciTegic.value.DoubleValue
0.872

@<SCITEGIC>MOL_PROPERTY
Coulomb
SciTegic.value.DoubleValue
43.648

@<SCITEGIC>MOL_PROPERTY
VdW
SciTegic.value.DoubleValue
0.144

@<SCITEGIC>MOL_PROPERTY
VdW6
SciTegic.value.DoubleValue
-2.370

@<SCITEGIC>MOL_PROPERTY
VdW12
SciTegic.value.DoubleValue
2.515

@<SCITEGIC>MOL_PROPERTY
Bond
SciTegic.value.DoubleValue
0.080

@<SCITEGIC>MOL_PROPERTY
Angle
SciTegic.value.DoubleValue
0.376

@<SCITEGIC>MOL_PROPERTY
Pdih
SciTegic.value.DoubleValue
0.416

@<SCITEGIC>MOL_PROPERTY
Idih
SciTegic.value.DoubleValue
0.000

@<SCITEGIC>MOL_PROPERTY
Tether
SciTegic.value.DoubleValue
0.000

@<TRIPOS>MOLECULE
guest-1_confgen4.mol2 : confsearch ligand conformer 692
          17          16           1
SMALL
USER_CHARGES
 
@<TRIPOS>ATOM
       1    N1      19.470489   19.944455   23.833455 N.4        1 MOL1        -0.5891
       2    H1      19.411679   20.966271   23.787828 H          1 MOL1         0.3726
       3    H2      20.372532   19.713986   24.261064 H          1 MOL1         0.3726
       4    H3      18.744591   19.634894   24.487739 H          1 MOL1         0.3726
       5    C1      19.309293   19.304901   22.468779 C.3        1 MOL1         0.0314
       6    H4      18.318535   19.566819   22.087720 H          1 MOL1         0.0999
       7    H5      19.350928   18.220411   22.599114 H          1 MOL1         0.0999
       8    C2      20.385715   19.748810   21.459710 C.3        1 MOL1        -0.1308
       9    H6      20.362113   20.842705   21.366372 H          1 MOL1         0.1025
      10    H7      21.380898   19.487243   21.843222 H          1 MOL1         0.1025
      11    C3      20.187332   19.119978   20.060703 C.3        1 MOL1        -0.1243
      12    H8      20.935342   19.537725   19.372263 H          1 MOL1         0.1025
      13    H9      19.204819   19.408280   19.661037 H          1 MOL1         0.1025
      14    C4      20.313307   17.579185   20.067406 C.3        1 MOL1        -0.2258
      15    H10     21.285353   17.263990   20.468532 H          1 MOL1         0.1036
      16    H11     20.227110   17.181515   19.047878 H          1 MOL1         0.1036
      17    H12     19.525344   17.112603   20.671977 H          1 MOL1         0.1036
@<TRIPOS>BOND
    1     1     2    1
    2     1     3    1
    3     1     4    1
    4     1     5    1
    5     5     6    1
    6     5     7    1
    7     5     8    1
    8     8     9    1
    9     8    10    1
   10     8    11    1
   11    11    12    1
   12    11    13    1
   13    11    14    1
   14    14    15    1
   15    14    16    1
   16    14    17    1
@<TRIPOS>SUBSTRUCTURE
       1 MOL1            1 RESIDUE      1      MOL     
@<SCITEGIC>MOL_PROPERTY
VConf Rank
SciTegic.value.IntegerValue
692

@<SCITEGIC>MOL_PROPERTY
Conf_Id
SciTegic.value.IntegerValue
36

@<SCITEGIC>MOL_PROPERTY
Delta U+W
SciTegic.value.DoubleValue
0.275

@<SCITEGIC>MOL_PROPERTY
U+W
SciTegic.value.DoubleValue
-15.590

@<SCITEGIC>MOL_PROPERTY
Grad RMS
SciTegic.value.DoubleValue
0.000000

@<SCITEGIC>MOL_PROPERTY
U
SciTegic.value.DoubleValue
45.174

@<SCITEGIC>MOL_PROPERTY
W
SciTegic.value.DoubleValue
-60.765

@<SCITEGIC>MOL_PROPERTY
W(PB)
SciTegic.value.DoubleValue
-62.518

@<SCITEGIC>MOL_PROPERTY
W(SA)
SciTegic.value.DoubleValue
1.754

@<SCITEGIC>MOL_PROPERTY
Valence
SciTegic.value.DoubleValue
1.161

@<SCITEGIC>MOL_PROPERTY
Coulomb
SciTegic.value.DoubleValue
43.789

@<SCITEGIC>MOL_PROPERTY
VdW
SciTegic.value.DoubleValue
0.224

@<SCITEGIC>MOL_PROPERTY
VdW6
SciTegic.value.DoubleValue
-2.897

@<SCITEGIC>MOL_PROPERTY
VdW12
SciTegic.value.DoubleValue
3.121

@<SCITEGIC>MOL_PROPERTY
Bond
SciTegic.value.DoubleValue
0.100

@<SCITEGIC>MOL_PROPERTY
Angle
SciTegic.value.DoubleValue
0.500

@<SCITEGIC>MOL_PROPERTY
Pdih
SciTegic.value.DoubleValue
0.561

@<SCITEGIC>MOL_PROPERTY
Idih
SciTegic.value.DoubleValue
0.000

@<SCITEGIC>MOL_PROPERTY
Tether
SciTegic.value.DoubleValue
0.000

@<TRIPOS>MOLECULE
guest-1_confgen4.mol2 : confsearch ligand conformer 693
          17          16           1
SMALL
USER_CHARGES
 
@<TRIPOS>ATOM
       1    N1      19.045946   20.550620   21.138129 N.4        1 MOL1        -0.5891
       2    H1      18.559029   20.053239   21.888041 H          1 MOL1         0.3726
       3    H2      18.547867   20.344553   20.266961 H          1 MOL1         0.3726
       4    H3      18.931113   21.553601   21.316072 H          1 MOL1         0.3726
       5    C1      20.508000   20.155576   21.058311 C.3        1 MOL1         0.0314
       6    H4      21.001892   20.459840   21.985024 H          1 MOL1         0.0999
       7    H5      20.949236   20.726874   20.237052 H          1 MOL1         0.0999
       8    C2      20.746042   18.651299   20.809114 C.3        1 MOL1        -0.1308
       9    H6      20.061277   18.286323   20.032185 H          1 MOL1         0.1025
      10    H7      21.757500   18.536019   20.397399 H          1 MOL1         0.1025
      11    C3      20.643921   17.765674   22.077162 C.3        1 MOL1        -0.1243
      12    H8      21.378172   18.101737   22.822788 H          1 MOL1         0.1025
      13    H9      20.932782   16.740176   21.807159 H          1 MOL1         0.1025
      14    C4      19.238375   17.728212   22.718973 C.3        1 MOL1        -0.2258
      15    H10     18.987057   18.683987   23.193325 H          1 MOL1         0.1036
      16    H11     19.197891   16.959595   23.501753 H          1 MOL1         0.1036
      17    H12     18.467098   17.487393   21.975811 H          1 MOL1         0.1036
@<TRIPOS>BOND
    1     1     2    1
    2     1     3    1
    3     1     4    1
    4     1     5    1
    5     5     6    1
    6     5     7    1
    7     5     8    1
    8     8     9    1
    9     8    10    1
   10     8    11    1
   11    11    12    1
   12    11    13    1
   13    11    14    1
   14    14    15    1
   15    14    16    1
   16    14    17    1
@<TRIPOS>SUBSTRUCTURE
       1 MOL1            1 RESIDUE      1      MOL     
@<SCITEGIC>MOL_PROPERTY
VConf Rank
SciTegic.value.IntegerValue
693

@<SCITEGIC>MOL_PROPERTY
Conf_Id
SciTegic.value.IntegerValue
19

@<SCITEGIC>MOL_PROPERTY
Delta U+W
SciTegic.value.DoubleValue
2.662

@<SCITEGIC>MOL_PROPERTY
U+W
SciTegic.value.DoubleValue
-13.203

@<SCITEGIC>MOL_PROPERTY
Grad RMS
SciTegic.value.DoubleValue
0.000000

@<SCITEGIC>MOL_PROPERTY
U
SciTegic.value.DoubleValue
47.423

@<SCITEGIC>MOL_PROPERTY
W
SciTegic.value.DoubleValue
-60.626

@<SCITEGIC>MOL_PROPERTY
W(PB)
SciTegic.value.DoubleValue
-62.328

@<SCITEGIC>MOL_PROPERTY
W(SA)
SciTegic.value.DoubleValue
1.702

@<SCITEGIC>MOL_PROPERTY
Valence
SciTegic.value.DoubleValue
2.414

@<SCITEGIC>MOL_PROPERTY
Coulomb
SciTegic.value.DoubleValue
44.831

@<SCITEGIC>MOL_PROPERTY
VdW
SciTegic.value.DoubleValue
0.178

@<SCITEGIC>MOL_PROPERTY
VdW6
SciTegic.value.DoubleValue
-3.743

@<SCITEGIC>MOL_PROPERTY
VdW12
SciTegic.value.DoubleValue
3.921

@<SCITEGIC>MOL_PROPERTY
Bond
SciTegic.value.DoubleValue
0.138

@<SCITEGIC>MOL_PROPERTY
Angle
SciTegic.value.DoubleValue
0.941

@<SCITEGIC>MOL_PROPERTY
Pdih
SciTegic.value.DoubleValue
1.335

@<SCITEGIC>MOL_PROPERTY
Idih
SciTegic.value.DoubleValue
0.000

@<SCITEGIC>MOL_PROPERTY
Tether
SciTegic.value.DoubleValue
0.000

@<TRIPOS>MOLECULE
guest-1_confgen4.mol2 : confsearch ligand conformer 694
          17          16           1
SMALL
USER_CHARGES
 
@<TRIPOS>ATOM
       1    N1      18.404826   20.036364   21.028439 N.4        1 MOL1        -0.5891
       2    H1      17.903977   20.438141   20.229346 H          1 MOL1         0.3726
       3    H2      17.982073   20.432173   21.873481 H          1 MOL1         0.3726
       4    H3      18.207153   19.032508   21.034935 H          1 MOL1         0.3726
       5    C1      19.893854   20.315758   20.959358 C.3        1 MOL1         0.0314
       6    H4      20.015646   21.402360   20.958723 H          1 MOL1         0.0999
       7    H5      20.276258   19.932451   20.009545 H          1 MOL1         0.0999
       8    C2      20.706125   19.719494   22.128245 C.3        1 MOL1        -0.1308
       9    H6      21.650847   20.274998   22.197247 H          1 MOL1         0.1025
      10    H7      20.183112   19.895800   23.077510 H          1 MOL1         0.1025
      11    C3      21.047906   18.215653   21.972197 C.3        1 MOL1        -0.1243
      12    H8      21.710932   17.923917   22.798803 H          1 MOL1         0.1025
      13    H9      21.626108   18.061796   21.050225 H          1 MOL1         0.1025
      14    C4      19.819398   17.277757   21.972211 C.3        1 MOL1        -0.2258
      15    H10     19.168913   17.472887   22.834734 H          1 MOL1         0.1036
      16    H11     20.140910   16.229589   22.028158 H          1 MOL1         0.1036
      17    H12     19.231173   17.385199   21.053447 H          1 MOL1         0.1036
@<TRIPOS>BOND
    1     1     2    1
    2     1     3    1
    3     1     4    1
    4     1     5    1
    5     5     6    1
    6     5     7    1
    7     5     8    1
    8     8     9    1
    9     8    10    1
   10     8    11    1
   11    11    12    1
   12    11    13    1
   13    11    14    1
   14    14    15    1
   15    14    16    1
   16    14    17    1
@<TRIPOS>SUBSTRUCTURE
       1 MOL1            1 RESIDUE      1      MOL     
@<SCITEGIC>MOL_PROPERTY
VConf Rank
SciTegic.value.IntegerValue
694

@<SCITEGIC>MOL_PROPERTY
Conf_Id
SciTegic.value.IntegerValue
44

@<SCITEGIC>MOL_PROPERTY
Delta U+W
SciTegic.value.DoubleValue
2.712

@<SCITEGIC>MOL_PROPERTY
U+W
SciTegic.value.DoubleValue
-13.153

@<SCITEGIC>MOL_PROPERTY
Grad RMS
SciTegic.value.DoubleValue
0.000000

@<SCITEGIC>MOL_PROPERTY
U
SciTegic.value.DoubleValue
47.423

@<SCITEGIC>MOL_PROPERTY
W
SciTegic.value.DoubleValue
-60.576

@<SCITEGIC>MOL_PROPERTY
W(PB)
SciTegic.value.DoubleValue
-62.262

@<SCITEGIC>MOL_PROPERTY
W(SA)
SciTegic.value.DoubleValue
1.687

@<SCITEGIC>MOL_PROPERTY
Valence
SciTegic.value.DoubleValue
2.414

@<SCITEGIC>MOL_PROPERTY
Coulomb
SciTegic.value.DoubleValue
44.831

@<SCITEGIC>MOL_PROPERTY
VdW
SciTegic.value.DoubleValue
0.178

@<SCITEGIC>MOL_PROPERTY
VdW6
SciTegic.value.DoubleValue
-3.743

@<SCITEGIC>MOL_PROPERTY
VdW12
SciTegic.value.DoubleValue
3.922

@<SCITEGIC>MOL_PROPERTY
Bond
SciTegic.value.DoubleValue
0.138

@<SCITEGIC>MOL_PROPERTY
Angle
SciTegic.value.DoubleValue
0.941

@<SCITEGIC>MOL_PROPERTY
Pdih
SciTegic.value.DoubleValue
1.335

@<SCITEGIC>MOL_PROPERTY
Idih
SciTegic.value.DoubleValue
0.000

@<SCITEGIC>MOL_PROPERTY
Tether
SciTegic.value.DoubleValue
0.000

@<TRIPOS>MOLECULE
guest-1_confgen4.mol2 : confsearch ligand conformer 695
          17          16           1
SMALL
USER_CHARGES
 
@<TRIPOS>ATOM
       1    N1      21.062498   19.235001   23.211328 N.4        1 MOL1        -0.5891
       2    H1      21.051000   20.142961   22.738124 H          1 MOL1         0.3726
       3    H2      21.991551   18.828998   23.065043 H          1 MOL1         0.3726
       4    H3      20.973254   19.419836   24.215589 H          1 MOL1         0.3726
       5    C1      19.960809   18.323826   22.705464 C.3        1 MOL1         0.0314
       6    H4      19.000856   18.801267   22.918405 H          1 MOL1         0.0999
       7    H5      20.009519   17.393222   23.277427 H          1 MOL1         0.0999
       8    C2      20.059886   18.003559   21.199631 C.3        1 MOL1        -0.1308
       9    H6      21.009153   17.488013   21.002516 H          1 MOL1         0.1025
      10    H7      19.265566   17.291580   20.938965 H          1 MOL1         0.1025
      11    C3      19.950206   19.247104   20.282504 C.3        1 MOL1        -0.1243
      12    H8      20.045716   18.924551   19.236204 H          1 MOL1         0.1025
      13    H9      20.791925   19.928209   20.467594 H          1 MOL1         0.1025
      14    C4      18.616279   20.009546   20.453147 C.3        1 MOL1        -0.2258
      15    H10     17.758325   19.349137   20.271924 H          1 MOL1         0.1036
      16    H11     18.554483   20.841719   19.739959 H          1 MOL1         0.1036
      17    H12     18.517616   20.430236   21.461727 H          1 MOL1         0.1036
@<TRIPOS>BOND
    1     1     2    1
    2     1     3    1
    3     1     4    1
    4     1     5    1
    5     5     6    1
    6     5     7    1
    7     5     8    1
    8     8     9    1
    9     8    10    1
   10     8    11    1
   11    11    12    1
   12    11    13    1
   13    11    14    1
   14    14    15    1
   15    14    16    1
   16    14    17    1
@<TRIPOS>SUBSTRUCTURE
       1 MOL1            1 RESIDUE      1      MOL     
@<SCITEGIC>MOL_PROPERTY
VConf Rank
SciTegic.value.IntegerValue
695

@<SCITEGIC>MOL_PROPERTY
Conf_Id
SciTegic.value.IntegerValue
1

@<SCITEGIC>MOL_PROPERTY
Delta U+W
SciTegic.value.DoubleValue
0.685

@<SCITEGIC>MOL_PROPERTY
U+W
SciTegic.value.DoubleValue
-15.179

@<SCITEGIC>MOL_PROPERTY
Grad RMS
SciTegic.value.DoubleValue
0.000000

@<SCITEGIC>MOL_PROPERTY
U
SciTegic.value.DoubleValue
45.697

@<SCITEGIC>MOL_PROPERTY
W
SciTegic.value.DoubleValue
-60.876

@<SCITEGIC>MOL_PROPERTY
W(PB)
SciTegic.value.DoubleValue
-62.586

@<SCITEGIC>MOL_PROPERTY
W(SA)
SciTegic.value.DoubleValue
1.710

@<SCITEGIC>MOL_PROPERTY
Valence
SciTegic.value.DoubleValue
1.263

@<SCITEGIC>MOL_PROPERTY
Coulomb
SciTegic.value.DoubleValue
44.179

@<SCITEGIC>MOL_PROPERTY
VdW
SciTegic.value.DoubleValue
0.255

@<SCITEGIC>MOL_PROPERTY
VdW6
SciTegic.value.DoubleValue
-3.552

@<SCITEGIC>MOL_PROPERTY
VdW12
SciTegic.value.DoubleValue
3.807

@<SCITEGIC>MOL_PROPERTY
Bond
SciTegic.value.DoubleValue
0.125

@<SCITEGIC>MOL_PROPERTY
Angle
SciTegic.value.DoubleValue
0.616

@<SCITEGIC>MOL_PROPERTY
Pdih
SciTegic.value.DoubleValue
0.521

@<SCITEGIC>MOL_PROPERTY
Idih
SciTegic.value.DoubleValue
0.000

@<SCITEGIC>MOL_PROPERTY
Tether
SciTegic.value.DoubleValue
0.000

@<TRIPOS>MOLECULE
guest-1_confgen4.mol2 : confsearch ligand conformer 696
          17          16           1
SMALL
USER_CHARGES
 
@<TRIPOS>ATOM
       1    N1      18.844097   17.539432   20.854821 N.4        1 MOL1        -0.5891
       2    H1      18.802960   16.745487   21.500836 H          1 MOL1         0.3726
       3    H2      19.757908   17.507667   20.393965 H          1 MOL1         0.3726
       4    H3      18.137991   17.371142   20.131108 H          1 MOL1         0.3726
       5    C1      18.619173   18.859816   21.566056 C.3        1 MOL1         0.0314
       6    H4      17.615838   18.837547   22.000062 H          1 MOL1         0.0999
       7    H5      18.646209   19.656934   20.818609 H          1 MOL1         0.0999
       8    C2      19.649497   19.152537   22.676311 C.3        1 MOL1        -0.1308
       9    H6      19.371390   20.090414   23.175156 H          1 MOL1         0.1025
      10    H7      19.586279   18.368473   23.442467 H          1 MOL1         0.1025
      11    C3      21.109241   19.258989   22.168993 C.3        1 MOL1        -0.1243
      12    H8      21.434028   18.297414   21.748825 H          1 MOL1         0.1025
      13    H9      21.768544   19.453200   23.026610 H          1 MOL1         0.1025
      14    C4      21.305908   20.378159   21.120862 C.3        1 MOL1        -0.2258
      15    H10     22.363691   20.460378   20.839253 H          1 MOL1         0.1036
      16    H11     20.988834   21.351097   21.518257 H          1 MOL1         0.1036
      17    H12     20.734398   20.179353   20.205548 H          1 MOL1         0.1036
@<TRIPOS>BOND
    1     1     2    1
    2     1     3    1
    3     1     4    1
    4     1     5    1
    5     5     6    1
    6     5     7    1
    7     5     8    1
    8     8     9    1
    9     8    10    1
   10     8    11    1
   11    11    12    1
   12    11    13    1
   13    11    14    1
   14    14    15    1
   15    14    16    1
   16    14    17    1
@<TRIPOS>SUBSTRUCTURE
       1 MOL1            1 RESIDUE      1      MOL     
@<SCITEGIC>MOL_PROPERTY
VConf Rank
SciTegic.value.IntegerValue
696

@<SCITEGIC>MOL_PROPERTY
Conf_Id
SciTegic.value.IntegerValue
43

@<SCITEGIC>MOL_PROPERTY
Delta U+W
SciTegic.value.DoubleValue
0.642

@<SCITEGIC>MOL_PROPERTY
U+W
SciTegic.value.DoubleValue
-15.222

@<SCITEGIC>MOL_PROPERTY
Grad RMS
SciTegic.value.DoubleValue
0.000000

@<SCITEGIC>MOL_PROPERTY
U
SciTegic.value.DoubleValue
45.697

@<SCITEGIC>MOL_PROPERTY
W
SciTegic.value.DoubleValue
-60.919

@<SCITEGIC>MOL_PROPERTY
W(PB)
SciTegic.value.DoubleValue
-62.631

@<SCITEGIC>MOL_PROPERTY
W(SA)
SciTegic.value.DoubleValue
1.712

@<SCITEGIC>MOL_PROPERTY
Valence
SciTegic.value.DoubleValue
1.262

@<SCITEGIC>MOL_PROPERTY
Coulomb
SciTegic.value.DoubleValue
44.179

@<SCITEGIC>MOL_PROPERTY
VdW
SciTegic.value.DoubleValue
0.255

@<SCITEGIC>MOL_PROPERTY
VdW6
SciTegic.value.DoubleValue
-3.552

@<SCITEGIC>MOL_PROPERTY
VdW12
SciTegic.value.DoubleValue
3.807

@<SCITEGIC>MOL_PROPERTY
Bond
SciTegic.value.DoubleValue
0.125

@<SCITEGIC>MOL_PROPERTY
Angle
SciTegic.value.DoubleValue
0.616

@<SCITEGIC>MOL_PROPERTY
Pdih
SciTegic.value.DoubleValue
0.521

@<SCITEGIC>MOL_PROPERTY
Idih
SciTegic.value.DoubleValue
0.000

@<SCITEGIC>MOL_PROPERTY
Tether
SciTegic.value.DoubleValue
0.000

@<TRIPOS>MOLECULE
guest-1_confgen4.mol2 : confsearch ligand conformer 697
          17          16           1
SMALL
USER_CHARGES
 
@<TRIPOS>ATOM
       1    N1      17.794089   20.441464   21.519635 N.4        1 MOL1        -0.5891
       2    H1      17.372296   20.078958   22.380086 H          1 MOL1         0.3726
       3    H2      17.352174   19.948928   20.737448 H          1 MOL1         0.3726
       4    H3      17.516068   21.425368   21.445157 H          1 MOL1         0.3726
       5    C1      19.301126   20.279710   21.513979 C.3        1 MOL1         0.0314
       6    H4      19.705361   20.853331   22.352475 H          1 MOL1         0.0999
       7    H5      19.683733   20.713550   20.586122 H          1 MOL1         0.0999
       8    C2      19.754260   18.812499   21.624537 C.3        1 MOL1        -0.1308
       9    H6      19.355333   18.375685   22.549762 H          1 MOL1         0.1025
      10    H7      19.333908   18.236421   20.789416 H          1 MOL1         0.1025
      11    C3      21.294078   18.692505   21.615291 C.3        1 MOL1        -0.1243
      12    H8      21.715636   19.271673   22.449066 H          1 MOL1         0.1025
      13    H9      21.694236   19.132506   20.690846 H          1 MOL1         0.1025
      14    C4      21.756092   17.223407   21.725955 C.3        1 MOL1        -0.2258
      15    H10     22.851963   17.159794   21.717690 H          1 MOL1         0.1036
      16    H11     21.378272   16.625797   20.886121 H          1 MOL1         0.1036
      17    H12     21.399783   16.766049   22.658197 H          1 MOL1         0.1036
@<TRIPOS>BOND
    1     1     2    1
    2     1     3    1
    3     1     4    1
    4     1     5    1
    5     5     6    1
    6     5     7    1
    7     5     8    1
    8     8     9    1
    9     8    10    1
   10     8    11    1
   11    11    12    1
   12    11    13    1
   13    11    14    1
   14    14    15    1
   15    14    16    1
   16    14    17    1
@<TRIPOS>SUBSTRUCTURE
       1 MOL1            1 RESIDUE      1      MOL     
@<SCITEGIC>MOL_PROPERTY
VConf Rank
SciTegic.value.IntegerValue
697

@<SCITEGIC>MOL_PROPERTY
Conf_Id
SciTegic.value.IntegerValue
7

@<SCITEGIC>MOL_PROPERTY
Delta U+W
SciTegic.value.DoubleValue
0.000

@<SCITEGIC>MOL_PROPERTY
U+W
SciTegic.value.DoubleValue
-15.865

@<SCITEGIC>MOL_PROPERTY
Grad RMS
SciTegic.value.DoubleValue
0.000000

@<SCITEGIC>MOL_PROPERTY
U
SciTegic.value.DoubleValue
44.664

@<SCITEGIC>MOL_PROPERTY
W
SciTegic.value.DoubleValue
-60.529

@<SCITEGIC>MOL_PROPERTY
W(PB)
SciTegic.value.DoubleValue
-62.309

@<SCITEGIC>MOL_PROPERTY
W(SA)
SciTegic.value.DoubleValue
1.780

@<SCITEGIC>MOL_PROPERTY
Valence
SciTegic.value.DoubleValue
0.872

@<SCITEGIC>MOL_PROPERTY
Coulomb
SciTegic.value.DoubleValue
43.648

@<SCITEGIC>MOL_PROPERTY
VdW
SciTegic.value.DoubleValue
0.144

@<SCITEGIC>MOL_PROPERTY
VdW6
SciTegic.value.DoubleValue
-2.370

@<SCITEGIC>MOL_PROPERTY
VdW12
SciTegic.value.DoubleValue
2.515

@<SCITEGIC>MOL_PROPERTY
Bond
SciTegic.value.DoubleValue
0.080

@<SCITEGIC>MOL_PROPERTY
Angle
SciTegic.value.DoubleValue
0.376

@<SCITEGIC>MOL_PROPERTY
Pdih
SciTegic.value.DoubleValue
0.416

@<SCITEGIC>MOL_PROPERTY
Idih
SciTegic.value.DoubleValue
0.000

@<SCITEGIC>MOL_PROPERTY
Tether
SciTegic.value.DoubleValue
0.000

@<TRIPOS>MOLECULE
guest-1_confgen4.mol2 : confsearch ligand conformer 698
          17          16           1
SMALL
USER_CHARGES
 
@<TRIPOS>ATOM
       1    N1      21.964065   20.088486   20.783908 N.4        1 MOL1        -0.5891
       2    H1      22.408430   20.614999   21.542176 H          1 MOL1         0.3726
       3    H2      21.536823   20.773068   20.152672 H          1 MOL1         0.3726
       4    H3      22.717171   19.631506   20.259652 H          1 MOL1         0.3726
       5    C1      20.951977   19.087614   21.304763 C.3        1 MOL1         0.0314
       6    H4      21.479946   18.374296   21.943382 H          1 MOL1         0.0999
       7    H5      20.544882   18.544733   20.447796 H          1 MOL1         0.0999
       8    C2      19.804680   19.741867   22.098249 C.3        1 MOL1        -0.1308
       9    H6      20.226836   20.317248   22.932873 H          1 MOL1         0.1025
      10    H7      19.275465   20.459528   21.457327 H          1 MOL1         0.1025
      11    C3      18.800361   18.707149   22.657453 C.3        1 MOL1        -0.1243
      12    H8      18.057422   19.229345   23.276593 H          1 MOL1         0.1025
      13    H9      19.322552   18.007915   23.325713 H          1 MOL1         0.1025
      14    C4      18.067183   17.916787   21.549421 C.3        1 MOL1        -0.2258
      15    H10     17.541378   18.593539   20.863373 H          1 MOL1         0.1036
      16    H11     17.322528   17.239898   21.987961 H          1 MOL1         0.1036
      17    H12     18.763684   17.305795   20.961488 H          1 MOL1         0.1036
@<TRIPOS>BOND
    1     1     2    1
    2     1     3    1
    3     1     4    1
    4     1     5    1
    5     5     6    1
    6     5     7    1
    7     5     8    1
    8     8     9    1
    9     8    10    1
   10     8    11    1
   11    11    12    1
   12    11    13    1
   13    11    14    1
   14    14    15    1
   15    14    16    1
   16    14    17    1
@<TRIPOS>SUBSTRUCTURE
       1 MOL1            1 RESIDUE      1      MOL     
@<SCITEGIC>MOL_PROPERTY
VConf Rank
SciTegic.value.IntegerValue
698

@<SCITEGIC>MOL_PROPERTY
Conf_Id
SciTegic.value.IntegerValue
36

@<SCITEGIC>MOL_PROPERTY
Delta U+W
SciTegic.value.DoubleValue
0.275

@<SCITEGIC>MOL_PROPERTY
U+W
SciTegic.value.DoubleValue
-15.590

@<SCITEGIC>MOL_PROPERTY
Grad RMS
SciTegic.value.DoubleValue
0.000000

@<SCITEGIC>MOL_PROPERTY
U
SciTegic.value.DoubleValue
45.174

@<SCITEGIC>MOL_PROPERTY
W
SciTegic.value.DoubleValue
-60.765

@<SCITEGIC>MOL_PROPERTY
W(PB)
SciTegic.value.DoubleValue
-62.518

@<SCITEGIC>MOL_PROPERTY
W(SA)
SciTegic.value.DoubleValue
1.754

@<SCITEGIC>MOL_PROPERTY
Valence
SciTegic.value.DoubleValue
1.161

@<SCITEGIC>MOL_PROPERTY
Coulomb
SciTegic.value.DoubleValue
43.789

@<SCITEGIC>MOL_PROPERTY
VdW
SciTegic.value.DoubleValue
0.224

@<SCITEGIC>MOL_PROPERTY
VdW6
SciTegic.value.DoubleValue
-2.897

@<SCITEGIC>MOL_PROPERTY
VdW12
SciTegic.value.DoubleValue
3.121

@<SCITEGIC>MOL_PROPERTY
Bond
SciTegic.value.DoubleValue
0.100

@<SCITEGIC>MOL_PROPERTY
Angle
SciTegic.value.DoubleValue
0.500

@<SCITEGIC>MOL_PROPERTY
Pdih
SciTegic.value.DoubleValue
0.561

@<SCITEGIC>MOL_PROPERTY
Idih
SciTegic.value.DoubleValue
0.000

@<SCITEGIC>MOL_PROPERTY
Tether
SciTegic.value.DoubleValue
0.000

@<TRIPOS>MOLECULE
guest-1_confgen4.mol2 : confsearch ligand conformer 699
          17          16           1
SMALL
USER_CHARGES
 
@<TRIPOS>ATOM
       1    N1      21.447210   19.792035   20.872724 N.4        1 MOL1        -0.5891
       2    H1      20.596542   20.091105   20.389230 H          1 MOL1         0.3726
       3    H2      21.892499   19.079773   20.286311 H          1 MOL1         0.3726
       4    H3      22.081226   20.597225   20.895433 H          1 MOL1         0.3726
       5    C1      21.148581   19.269679   22.264843 C.3        1 MOL1         0.0314
       6    H4      20.739731   20.088095   22.863457 H          1 MOL1         0.0999
       7    H5      22.103609   18.972433   22.706548 H          1 MOL1         0.0999
       8    C2      20.183346   18.065984   22.297290 C.3        1 MOL1        -0.1308
       9    H6      20.454755   17.345691   21.514191 H          1 MOL1         0.1025
      10    H7      20.331709   17.543409   23.251623 H          1 MOL1         0.1025
      11    C3      18.683487   18.441697   22.187886 C.3        1 MOL1        -0.1243
      12    H8      18.409407   19.112890   23.013961 H          1 MOL1         0.1025
      13    H9      18.087114   17.529080   22.327381 H          1 MOL1         0.1025
      14    C4      18.283580   19.090143   20.843091 C.3        1 MOL1        -0.2258
      15    H10     18.690568   20.103579   20.748298 H          1 MOL1         0.1036
      16    H11     17.191347   19.173558   20.770803 H          1 MOL1         0.1036
      17    H12     18.628489   18.488343   19.992193 H          1 MOL1         0.1036
@<TRIPOS>BOND
    1     1     2    1
    2     1     3    1
    3     1     4    1
    4     1     5    1
    5     5     6    1
    6     5     7    1
    7     5     8    1
    8     8     9    1
    9     8    10    1
   10     8    11    1
   11    11    12    1
   12    11    13    1
   13    11    14    1
   14    14    15    1
   15    14    16    1
   16    14    17    1
@<TRIPOS>SUBSTRUCTURE
       1 MOL1            1 RESIDUE      1      MOL     
@<SCITEGIC>MOL_PROPERTY
VConf Rank
SciTegic.value.IntegerValue
699

@<SCITEGIC>MOL_PROPERTY
Conf_Id
SciTegic.value.IntegerValue
19

@<SCITEGIC>MOL_PROPERTY
Delta U+W
SciTegic.value.DoubleValue
2.662

@<SCITEGIC>MOL_PROPERTY
U+W
SciTegic.value.DoubleValue
-13.203

@<SCITEGIC>MOL_PROPERTY
Grad RMS
SciTegic.value.DoubleValue
0.000000

@<SCITEGIC>MOL_PROPERTY
U
SciTegic.value.DoubleValue
47.423

@<SCITEGIC>MOL_PROPERTY
W
SciTegic.value.DoubleValue
-60.626

@<SCITEGIC>MOL_PROPERTY
W(PB)
SciTegic.value.DoubleValue
-62.328

@<SCITEGIC>MOL_PROPERTY
W(SA)
SciTegic.value.DoubleValue
1.702

@<SCITEGIC>MOL_PROPERTY
Valence
SciTegic.value.DoubleValue
2.414

@<SCITEGIC>MOL_PROPERTY
Coulomb
SciTegic.value.DoubleValue
44.831

@<SCITEGIC>MOL_PROPERTY
VdW
SciTegic.value.DoubleValue
0.178

@<SCITEGIC>MOL_PROPERTY
VdW6
SciTegic.value.DoubleValue
-3.743

@<SCITEGIC>MOL_PROPERTY
VdW12
SciTegic.value.DoubleValue
3.921

@<SCITEGIC>MOL_PROPERTY
Bond
SciTegic.value.DoubleValue
0.138

@<SCITEGIC>MOL_PROPERTY
Angle
SciTegic.value.DoubleValue
0.941

@<SCITEGIC>MOL_PROPERTY
Pdih
SciTegic.value.DoubleValue
1.335

@<SCITEGIC>MOL_PROPERTY
Idih
SciTegic.value.DoubleValue
0.000

@<SCITEGIC>MOL_PROPERTY
Tether
SciTegic.value.DoubleValue
0.000

@<TRIPOS>MOLECULE
guest-1_confgen4.mol2 : confsearch ligand conformer 700
          17          16           1
SMALL
USER_CHARGES
 
@<TRIPOS>ATOM
       1    N1      21.317715   18.715941   20.473384 N.4        1 MOL1        -0.5891
       2    H1      22.328689   18.802068   20.327315 H          1 MOL1         0.3726
       3    H2      20.912406   18.422128   19.579584 H          1 MOL1         0.3726
       4    H3      21.172550   17.949911   21.135931 H          1 MOL1         0.3726
       5    C1      20.707000   20.012229   20.970077 C.3        1 MOL1         0.0314
       6    H4      20.904249   20.771237   20.208147 H          1 MOL1         0.0999
       7    H5      21.222876   20.311430   21.886403 H          1 MOL1         0.0999
       8    C2      19.186866   19.940148   21.226219 C.3        1 MOL1        -0.1308
       9    H6      18.794333   20.965436   21.202788 H          1 MOL1         0.1025
      10    H7      18.691895   19.409310   20.402238 H          1 MOL1         0.1025
      11    C3      18.793483   19.310271   22.586810 C.3        1 MOL1        -0.1243
      12    H8      17.705477   19.405042   22.710310 H          1 MOL1         0.1025
      13    H9      19.243686   19.888708   23.405802 H          1 MOL1         0.1025
      14    C4      19.177868   17.820725   22.736408 C.3        1 MOL1        -0.2258
      15    H10     18.822844   17.229679   21.882140 H          1 MOL1         0.1036
      16    H11     18.724707   17.400075   23.643522 H          1 MOL1         0.1036
      17    H12     20.262566   17.692509   22.829525 H          1 MOL1         0.1036
@<TRIPOS>BOND
    1     1     2    1
    2     1     3    1
    3     1     4    1
    4     1     5    1
    5     5     6    1
    6     5     7    1
    7     5     8    1
    8     8     9    1
    9     8    10    1
   10     8    11    1
   11    11    12    1
   12    11    13    1
   13    11    14    1
   14    14    15    1
   15    14    16    1
   16    14    17    1
@<TRIPOS>SUBSTRUCTURE
       1 MOL1            1 RESIDUE      1      MOL     
@<SCITEGIC>MOL_PROPERTY
VConf Rank
SciTegic.value.IntegerValue
700

@<SCITEGIC>MOL_PROPERTY
Conf_Id
SciTegic.value.IntegerValue
44

@<SCITEGIC>MOL_PROPERTY
Delta U+W
SciTegic.value.DoubleValue
2.712

@<SCITEGIC>MOL_PROPERTY
U+W
SciTegic.value.DoubleValue
-13.153

@<SCITEGIC>MOL_PROPERTY
Grad RMS
SciTegic.value.DoubleValue
0.000000

@<SCITEGIC>MOL_PROPERTY
U
SciTegic.value.DoubleValue
47.423

@<SCITEGIC>MOL_PROPERTY
W
SciTegic.value.DoubleValue
-60.576

@<SCITEGIC>MOL_PROPERTY
W(PB)
SciTegic.value.DoubleValue
-62.262

@<SCITEGIC>MOL_PROPERTY
W(SA)
SciTegic.value.DoubleValue
1.687

@<SCITEGIC>MOL_PROPERTY
Valence
SciTegic.value.DoubleValue
2.414

@<SCITEGIC>MOL_PROPERTY
Coulomb
SciTegic.value.DoubleValue
44.831

@<SCITEGIC>MOL_PROPERTY
VdW
SciTegic.value.DoubleValue
0.178

@<SCITEGIC>MOL_PROPERTY
VdW6
SciTegic.value.DoubleValue
-3.743

@<SCITEGIC>MOL_PROPERTY
VdW12
SciTegic.value.DoubleValue
3.922

@<SCITEGIC>MOL_PROPERTY
Bond
SciTegic.value.DoubleValue
0.138

@<SCITEGIC>MOL_PROPERTY
Angle
SciTegic.value.DoubleValue
0.941

@<SCITEGIC>MOL_PROPERTY
Pdih
SciTegic.value.DoubleValue
1.335

@<SCITEGIC>MOL_PROPERTY
Idih
SciTegic.value.DoubleValue
0.000

@<SCITEGIC>MOL_PROPERTY
Tether
SciTegic.value.DoubleValue
0.000

@<TRIPOS>MOLECULE
guest-1_confgen4.mol2 : confsearch ligand conformer 701
          17          16           1
SMALL
USER_CHARGES
 
@<TRIPOS>ATOM
       1    N1      19.606161   20.994936   21.452745 N.4        1 MOL1        -0.5891
       2    H1      19.140762   20.555147   20.653723 H          1 MOL1         0.3726
       3    H2      20.432036   21.481805   21.091819 H          1 MOL1         0.3726
       4    H3      18.969680   21.714070   21.811085 H          1 MOL1         0.3726
       5    C1      19.968887   19.980307   22.519897 C.3        1 MOL1         0.0314
       6    H4      19.044513   19.521708   22.880487 H          1 MOL1         0.0999
       7    H5      20.424681   20.522004   23.353176 H          1 MOL1         0.0999
       8    C2      20.938144   18.883492   22.032599 C.3        1 MOL1        -0.1308
       9    H6      21.878369   19.350491   21.710672 H          1 MOL1         0.1025
      10    H7      21.193355   18.237231   22.882903 H          1 MOL1         0.1025
      11    C3      20.376365   18.012355   20.881477 C.3        1 MOL1        -0.1243
      12    H8      21.137257   17.273546   20.593190 H          1 MOL1         0.1025
      13    H9      20.201708   18.630783   19.990581 H          1 MOL1         0.1025
      14    C4      19.075140   17.270206   21.263348 C.3        1 MOL1        -0.2258
      15    H10     19.224670   16.643371   22.152047 H          1 MOL1         0.1036
      16    H11     18.750001   16.616489   20.443649 H          1 MOL1         0.1036
      17    H12     18.256916   17.970820   21.472151 H          1 MOL1         0.1036
@<TRIPOS>BOND
    1     1     2    1
    2     1     3    1
    3     1     4    1
    4     1     5    1
    5     5     6    1
    6     5     7    1
    7     5     8    1
    8     8     9    1
    9     8    10    1
   10     8    11    1
   11    11    12    1
   12    11    13    1
   13    11    14    1
   14    14    15    1
   15    14    16    1
   16    14    17    1
@<TRIPOS>SUBSTRUCTURE
       1 MOL1            1 RESIDUE      1      MOL     
@<SCITEGIC>MOL_PROPERTY
VConf Rank
SciTegic.value.IntegerValue
701

@<SCITEGIC>MOL_PROPERTY
Conf_Id
SciTegic.value.IntegerValue
1

@<SCITEGIC>MOL_PROPERTY
Delta U+W
SciTegic.value.DoubleValue
0.685

@<SCITEGIC>MOL_PROPERTY
U+W
SciTegic.value.DoubleValue
-15.179

@<SCITEGIC>MOL_PROPERTY
Grad RMS
SciTegic.value.DoubleValue
0.000000

@<SCITEGIC>MOL_PROPERTY
U
SciTegic.value.DoubleValue
45.697

@<SCITEGIC>MOL_PROPERTY
W
SciTegic.value.DoubleValue
-60.876

@<SCITEGIC>MOL_PROPERTY
W(PB)
SciTegic.value.DoubleValue
-62.586

@<SCITEGIC>MOL_PROPERTY
W(SA)
SciTegic.value.DoubleValue
1.710

@<SCITEGIC>MOL_PROPERTY
Valence
SciTegic.value.DoubleValue
1.263

@<SCITEGIC>MOL_PROPERTY
Coulomb
SciTegic.value.DoubleValue
44.179

@<SCITEGIC>MOL_PROPERTY
VdW
SciTegic.value.DoubleValue
0.255

@<SCITEGIC>MOL_PROPERTY
VdW6
SciTegic.value.DoubleValue
-3.552

@<SCITEGIC>MOL_PROPERTY
VdW12
SciTegic.value.DoubleValue
3.807

@<SCITEGIC>MOL_PROPERTY
Bond
SciTegic.value.DoubleValue
0.125

@<SCITEGIC>MOL_PROPERTY
Angle
SciTegic.value.DoubleValue
0.616

@<SCITEGIC>MOL_PROPERTY
Pdih
SciTegic.value.DoubleValue
0.521

@<SCITEGIC>MOL_PROPERTY
Idih
SciTegic.value.DoubleValue
0.000

@<SCITEGIC>MOL_PROPERTY
Tether
SciTegic.value.DoubleValue
0.000

@<TRIPOS>MOLECULE
guest-1_confgen4.mol2 : confsearch ligand conformer 702
          17          16           1
SMALL
USER_CHARGES
 
@<TRIPOS>ATOM
       1    N1      20.015967   20.816053   20.735069 N.4        1 MOL1        -0.5891
       2    H1      20.913475   20.960324   20.262794 H          1 MOL1         0.3726
       3    H2      20.174696   20.957881   21.736637 H          1 MOL1         0.3726
       4    H3      19.391044   21.565821   20.422041 H          1 MOL1         0.3726
       5    C1      19.438962   19.443590   20.446506 C.3        1 MOL1         0.0314
       6    H4      19.261163   19.376819   19.369720 H          1 MOL1         0.0999
       7    H5      18.473584   19.367742   20.953553 H          1 MOL1         0.0999
       8    C2      20.350698   18.279608   20.886736 C.3        1 MOL1        -0.1308
       9    H6      19.884380   17.333434   20.581602 H          1 MOL1         0.1025
      10    H7      21.302079   18.341100   20.341906 H          1 MOL1         0.1025
      11    C3      20.631993   18.240891   22.409540 C.3        1 MOL1        -0.1243
      12    H8      21.181258   19.141784   22.715080 H          1 MOL1         0.1025
      13    H9      21.296982   17.392793   22.625004 H          1 MOL1         0.1025
      14    C4      19.348082   18.100738   23.259085 C.3        1 MOL1        -0.2258
      15    H10     19.598882   18.011578   24.324034 H          1 MOL1         0.1036
      16    H11     18.781221   17.205347   22.972710 H          1 MOL1         0.1036
      17    H12     18.691521   18.972533   23.145723 H          1 MOL1         0.1036
@<TRIPOS>BOND
    1     1     2    1
    2     1     3    1
    3     1     4    1
    4     1     5    1
    5     5     6    1
    6     5     7    1
    7     5     8    1
    8     8     9    1
    9     8    10    1
   10     8    11    1
   11    11    12    1
   12    11    13    1
   13    11    14    1
   14    14    15    1
   15    14    16    1
   16    14    17    1
@<TRIPOS>SUBSTRUCTURE
       1 MOL1            1 RESIDUE      1      MOL     
@<SCITEGIC>MOL_PROPERTY
VConf Rank
SciTegic.value.IntegerValue
702

@<SCITEGIC>MOL_PROPERTY
Conf_Id
SciTegic.value.IntegerValue
43

@<SCITEGIC>MOL_PROPERTY
Delta U+W
SciTegic.value.DoubleValue
0.642

@<SCITEGIC>MOL_PROPERTY
U+W
SciTegic.value.DoubleValue
-15.222

@<SCITEGIC>MOL_PROPERTY
Grad RMS
SciTegic.value.DoubleValue
0.000000

@<SCITEGIC>MOL_PROPERTY
U
SciTegic.value.DoubleValue
45.697

@<SCITEGIC>MOL_PROPERTY
W
SciTegic.value.DoubleValue
-60.919

@<SCITEGIC>MOL_PROPERTY
W(PB)
SciTegic.value.DoubleValue
-62.631

@<SCITEGIC>MOL_PROPERTY
W(SA)
SciTegic.value.DoubleValue
1.712

@<SCITEGIC>MOL_PROPERTY
Valence
SciTegic.value.DoubleValue
1.262

@<SCITEGIC>MOL_PROPERTY
Coulomb
SciTegic.value.DoubleValue
44.179

@<SCITEGIC>MOL_PROPERTY
VdW
SciTegic.value.DoubleValue
0.255

@<SCITEGIC>MOL_PROPERTY
VdW6
SciTegic.value.DoubleValue
-3.552

@<SCITEGIC>MOL_PROPERTY
VdW12
SciTegic.value.DoubleValue
3.807

@<SCITEGIC>MOL_PROPERTY
Bond
SciTegic.value.DoubleValue
0.125

@<SCITEGIC>MOL_PROPERTY
Angle
SciTegic.value.DoubleValue
0.616

@<SCITEGIC>MOL_PROPERTY
Pdih
SciTegic.value.DoubleValue
0.521

@<SCITEGIC>MOL_PROPERTY
Idih
SciTegic.value.DoubleValue
0.000

@<SCITEGIC>MOL_PROPERTY
Tether
SciTegic.value.DoubleValue
0.000

@<TRIPOS>MOLECULE
guest-1_confgen4.mol2 : confsearch ligand conformer 703
          17          16           1
SMALL
USER_CHARGES
 
@<TRIPOS>ATOM
       1    N1      18.464307   17.048542   22.160592 N.4        1 MOL1        -0.5891
       2    H1      17.561164   17.503100   21.995048 H          1 MOL1         0.3726
       3    H2      18.618491   17.045983   23.173468 H          1 MOL1         0.3726
       4    H3      18.360157   16.069705   21.874340 H          1 MOL1         0.3726
       5    C1      19.591284   17.736503   21.416288 C.3        1 MOL1         0.0314
       6    H4      19.376370   17.674387   20.346018 H          1 MOL1         0.0999
       7    H5      20.513339   17.182808   21.613166 H          1 MOL1         0.0999
       8    C2      19.775890   19.210049   21.822299 C.3        1 MOL1        -0.1308
       9    H6      18.843134   19.759465   21.637639 H          1 MOL1         0.1025
      10    H7      19.976335   19.269568   22.900385 H          1 MOL1         0.1025
      11    C3      20.932227   19.872583   21.041625 C.3        1 MOL1        -0.1243
      12    H8      20.733749   19.810369   19.962244 H          1 MOL1         0.1025
      13    H9      21.865577   19.321125   21.223500 H          1 MOL1         0.1025
      14    C4      21.123329   21.351040   21.443622 C.3        1 MOL1        -0.2258
      15    H10     21.948625   21.803118   20.878326 H          1 MOL1         0.1036
      16    H11     21.357611   21.443106   22.512192 H          1 MOL1         0.1036
      17    H12     20.216819   21.936194   21.241032 H          1 MOL1         0.1036
@<TRIPOS>BOND
    1     1     2    1
    2     1     3    1
    3     1     4    1
    4     1     5    1
    5     5     6    1
    6     5     7    1
    7     5     8    1
    8     8     9    1
    9     8    10    1
   10     8    11    1
   11    11    12    1
   12    11    13    1
   13    11    14    1
   14    14    15    1
   15    14    16    1
   16    14    17    1
@<TRIPOS>SUBSTRUCTURE
       1 MOL1            1 RESIDUE      1      MOL     
@<SCITEGIC>MOL_PROPERTY
VConf Rank
SciTegic.value.IntegerValue
703

@<SCITEGIC>MOL_PROPERTY
Conf_Id
SciTegic.value.IntegerValue
7

@<SCITEGIC>MOL_PROPERTY
Delta U+W
SciTegic.value.DoubleValue
0.000

@<SCITEGIC>MOL_PROPERTY
U+W
SciTegic.value.DoubleValue
-15.865

@<SCITEGIC>MOL_PROPERTY
Grad RMS
SciTegic.value.DoubleValue
0.000000

@<SCITEGIC>MOL_PROPERTY
U
SciTegic.value.DoubleValue
44.664

@<SCITEGIC>MOL_PROPERTY
W
SciTegic.value.DoubleValue
-60.529

@<SCITEGIC>MOL_PROPERTY
W(PB)
SciTegic.value.DoubleValue
-62.309

@<SCITEGIC>MOL_PROPERTY
W(SA)
SciTegic.value.DoubleValue
1.780

@<SCITEGIC>MOL_PROPERTY
Valence
SciTegic.value.DoubleValue
0.872

@<SCITEGIC>MOL_PROPERTY
Coulomb
SciTegic.value.DoubleValue
43.648

@<SCITEGIC>MOL_PROPERTY
VdW
SciTegic.value.DoubleValue
0.144

@<SCITEGIC>MOL_PROPERTY
VdW6
SciTegic.value.DoubleValue
-2.370

@<SCITEGIC>MOL_PROPERTY
VdW12
SciTegic.value.DoubleValue
2.515

@<SCITEGIC>MOL_PROPERTY
Bond
SciTegic.value.DoubleValue
0.080

@<SCITEGIC>MOL_PROPERTY
Angle
SciTegic.value.DoubleValue
0.376

@<SCITEGIC>MOL_PROPERTY
Pdih
SciTegic.value.DoubleValue
0.416

@<SCITEGIC>MOL_PROPERTY
Idih
SciTegic.value.DoubleValue
0.000

@<SCITEGIC>MOL_PROPERTY
Tether
SciTegic.value.DoubleValue
0.000

@<TRIPOS>MOLECULE
guest-1_confgen4.mol2 : confsearch ligand conformer 704
          17          16           1
SMALL
USER_CHARGES
 
@<TRIPOS>ATOM
       1    N1      19.328477   21.180553   22.679829 N.4        1 MOL1        -0.5891
       2    H1      19.028042   20.986408   23.639879 H          1 MOL1         0.3726
       3    H2      18.483760   21.376678   22.134271 H          1 MOL1         0.3726
       4    H3      19.870820   22.049945   22.709253 H          1 MOL1         0.3726
       5    C1      20.130016   20.035684   22.093172 C.3        1 MOL1         0.0314
       6    H4      21.026708   19.902819   22.704481 H          1 MOL1         0.0999
       7    H5      20.441296   20.325061   21.086095 H          1 MOL1         0.0999
       8    C2      19.343468   18.712135   22.033865 C.3        1 MOL1        -0.1308
       9    H6      19.001302   18.451353   23.044208 H          1 MOL1         0.1025
      10    H7      18.441989   18.846057   21.421257 H          1 MOL1         0.1025
      11    C3      20.184663   17.543151   21.470063 C.3        1 MOL1        -0.1243
      12    H8      19.594867   16.617653   21.529858 H          1 MOL1         0.1025
      13    H9      21.070518   17.386081   22.101548 H          1 MOL1         0.1025
      14    C4      20.624514   17.766835   20.004985 C.3        1 MOL1        -0.2258
      15    H10     19.757039   17.932548   19.352949 H          1 MOL1         0.1036
      16    H11     21.164517   16.889060   19.626945 H          1 MOL1         0.1036
      17    H12     21.293385   18.631752   19.912141 H          1 MOL1         0.1036
@<TRIPOS>BOND
    1     1     2    1
    2     1     3    1
    3     1     4    1
    4     1     5    1
    5     5     6    1
    6     5     7    1
    7     5     8    1
    8     8     9    1
    9     8    10    1
   10     8    11    1
   11    11    12    1
   12    11    13    1
   13    11    14    1
   14    14    15    1
   15    14    16    1
   16    14    17    1
@<TRIPOS>SUBSTRUCTURE
       1 MOL1            1 RESIDUE      1      MOL     
@<SCITEGIC>MOL_PROPERTY
VConf Rank
SciTegic.value.IntegerValue
704

@<SCITEGIC>MOL_PROPERTY
Conf_Id
SciTegic.value.IntegerValue
36

@<SCITEGIC>MOL_PROPERTY
Delta U+W
SciTegic.value.DoubleValue
0.275

@<SCITEGIC>MOL_PROPERTY
U+W
SciTegic.value.DoubleValue
-15.590

@<SCITEGIC>MOL_PROPERTY
Grad RMS
SciTegic.value.DoubleValue
0.000000

@<SCITEGIC>MOL_PROPERTY
U
SciTegic.value.DoubleValue
45.174

@<SCITEGIC>MOL_PROPERTY
W
SciTegic.value.DoubleValue
-60.765

@<SCITEGIC>MOL_PROPERTY
W(PB)
SciTegic.value.DoubleValue
-62.518

@<SCITEGIC>MOL_PROPERTY
W(SA)
SciTegic.value.DoubleValue
1.754

@<SCITEGIC>MOL_PROPERTY
Valence
SciTegic.value.DoubleValue
1.161

@<SCITEGIC>MOL_PROPERTY
Coulomb
SciTegic.value.DoubleValue
43.789

@<SCITEGIC>MOL_PROPERTY
VdW
SciTegic.value.DoubleValue
0.224

@<SCITEGIC>MOL_PROPERTY
VdW6
SciTegic.value.DoubleValue
-2.897

@<SCITEGIC>MOL_PROPERTY
VdW12
SciTegic.value.DoubleValue
3.121

@<SCITEGIC>MOL_PROPERTY
Bond
SciTegic.value.DoubleValue
0.100

@<SCITEGIC>MOL_PROPERTY
Angle
SciTegic.value.DoubleValue
0.500

@<SCITEGIC>MOL_PROPERTY
Pdih
SciTegic.value.DoubleValue
0.561

@<SCITEGIC>MOL_PROPERTY
Idih
SciTegic.value.DoubleValue
0.000

@<SCITEGIC>MOL_PROPERTY
Tether
SciTegic.value.DoubleValue
0.000

@<TRIPOS>MOLECULE
guest-1_confgen4.mol2 : confsearch ligand conformer 705
          17          16           1
SMALL
USER_CHARGES
 
@<TRIPOS>ATOM
       1    N1      20.969347   17.538229   22.142185 N.4        1 MOL1        -0.5891
       2    H1      19.993797   17.428200   22.430352 H          1 MOL1         0.3726
       3    H2      21.492564   17.854198   22.964308 H          1 MOL1         0.3726
       4    H3      21.322061   16.605170   21.905928 H          1 MOL1         0.3726
       5    C1      21.107122   18.504113   20.981100 C.3        1 MOL1         0.0314
       6    H4      20.588047   18.084080   20.115401 H          1 MOL1         0.0999
       7    H5      22.171901   18.564488   20.739981 H          1 MOL1         0.0999
       8    C2      20.575880   19.923859   21.270436 C.3        1 MOL1        -0.1308
       9    H6      20.902485   20.251376   22.266323 H          1 MOL1         0.1025
      10    H7      21.050208   20.610741   20.556956 H          1 MOL1         0.1025
      11    C3      19.039792   20.076458   21.129547 C.3        1 MOL1        -0.1243
      12    H8      18.733557   19.805971   20.109214 H          1 MOL1         0.1025
      13    H9      18.784952   21.138594   21.251666 H          1 MOL1         0.1025
      14    C4      18.219680   19.253272   22.148695 C.3        1 MOL1        -0.2258
      15    H10     18.275245   18.179304   21.936137 H          1 MOL1         0.1036
      16    H11     17.160091   19.536532   22.101881 H          1 MOL1         0.1036
      17    H12     18.566469   19.430131   23.175151 H          1 MOL1         0.1036
@<TRIPOS>BOND
    1     1     2    1
    2     1     3    1
    3     1     4    1
    4     1     5    1
    5     5     6    1
    6     5     7    1
    7     5     8    1
    8     8     9    1
    9     8    10    1
   10     8    11    1
   11    11    12    1
   12    11    13    1
   13    11    14    1
   14    14    15    1
   15    14    16    1
   16    14    17    1
@<TRIPOS>SUBSTRUCTURE
       1 MOL1            1 RESIDUE      1      MOL     
@<SCITEGIC>MOL_PROPERTY
VConf Rank
SciTegic.value.IntegerValue
705

@<SCITEGIC>MOL_PROPERTY
Conf_Id
SciTegic.value.IntegerValue
19

@<SCITEGIC>MOL_PROPERTY
Delta U+W
SciTegic.value.DoubleValue
2.662

@<SCITEGIC>MOL_PROPERTY
U+W
SciTegic.value.DoubleValue
-13.203

@<SCITEGIC>MOL_PROPERTY
Grad RMS
SciTegic.value.DoubleValue
0.000000

@<SCITEGIC>MOL_PROPERTY
U
SciTegic.value.DoubleValue
47.423

@<SCITEGIC>MOL_PROPERTY
W
SciTegic.value.DoubleValue
-60.626

@<SCITEGIC>MOL_PROPERTY
W(PB)
SciTegic.value.DoubleValue
-62.328

@<SCITEGIC>MOL_PROPERTY
W(SA)
SciTegic.value.DoubleValue
1.702

@<SCITEGIC>MOL_PROPERTY
Valence
SciTegic.value.DoubleValue
2.414

@<SCITEGIC>MOL_PROPERTY
Coulomb
SciTegic.value.DoubleValue
44.831

@<SCITEGIC>MOL_PROPERTY
VdW
SciTegic.value.DoubleValue
0.178

@<SCITEGIC>MOL_PROPERTY
VdW6
SciTegic.value.DoubleValue
-3.743

@<SCITEGIC>MOL_PROPERTY
VdW12
SciTegic.value.DoubleValue
3.921

@<SCITEGIC>MOL_PROPERTY
Bond
SciTegic.value.DoubleValue
0.138

@<SCITEGIC>MOL_PROPERTY
Angle
SciTegic.value.DoubleValue
0.941

@<SCITEGIC>MOL_PROPERTY
Pdih
SciTegic.value.DoubleValue
1.335

@<SCITEGIC>MOL_PROPERTY
Idih
SciTegic.value.DoubleValue
0.000

@<SCITEGIC>MOL_PROPERTY
Tether
SciTegic.value.DoubleValue
0.000

@<TRIPOS>MOLECULE
guest-1_confgen4.mol2 : confsearch ligand conformer 706
          17          16           1
SMALL
USER_CHARGES
 
@<TRIPOS>ATOM
       1    N1      20.751866   18.661674   20.007925 N.4        1 MOL1        -0.5891
       2    H1      20.894339   18.915590   19.025046 H          1 MOL1         0.3726
       3    H2      21.172802   17.737078   20.139892 H          1 MOL1         0.3726
       4    H3      21.293031   19.321956   20.571850 H          1 MOL1         0.3726
       5    C1      19.283172   18.671341   20.385924 C.3        1 MOL1         0.0314
       6    H4      18.782560   17.942700   19.742490 H          1 MOL1         0.0999
       7    H5      18.872306   19.659197   20.160907 H          1 MOL1         0.0999
       8    C2      19.005419   18.313798   21.861264 C.3        1 MOL1        -0.1308
       9    H6      17.961767   17.980159   21.934217 H          1 MOL1         0.1025
      10    H7      19.618263   17.453386   22.161001 H          1 MOL1         0.1025
      11    C3      19.201085   19.487359   22.854830 C.3        1 MOL1        -0.1243
      12    H8      18.877497   19.154808   23.851168 H          1 MOL1         0.1025
      13    H9      18.535774   20.318262   22.580998 H          1 MOL1         0.1025
      14    C4      20.654502   20.003292   22.956181 C.3        1 MOL1        -0.2258
      15    H10     21.358174   19.179979   23.135495 H          1 MOL1         0.1036
      16    H11     20.749943   20.710401   23.790474 H          1 MOL1         0.1036
      17    H12     20.956711   20.535866   22.046942 H          1 MOL1         0.1036
@<TRIPOS>BOND
    1     1     2    1
    2     1     3    1
    3     1     4    1
    4     1     5    1
    5     5     6    1
    6     5     7    1
    7     5     8    1
    8     8     9    1
    9     8    10    1
   10     8    11    1
   11    11    12    1
   12    11    13    1
   13    11    14    1
   14    14    15    1
   15    14    16    1
   16    14    17    1
@<TRIPOS>SUBSTRUCTURE
       1 MOL1            1 RESIDUE      1      MOL     
@<SCITEGIC>MOL_PROPERTY
VConf Rank
SciTegic.value.IntegerValue
706

@<SCITEGIC>MOL_PROPERTY
Conf_Id
SciTegic.value.IntegerValue
44

@<SCITEGIC>MOL_PROPERTY
Delta U+W
SciTegic.value.DoubleValue
2.712

@<SCITEGIC>MOL_PROPERTY
U+W
SciTegic.value.DoubleValue
-13.153

@<SCITEGIC>MOL_PROPERTY
Grad RMS
SciTegic.value.DoubleValue
0.000000

@<SCITEGIC>MOL_PROPERTY
U
SciTegic.value.DoubleValue
47.423

@<SCITEGIC>MOL_PROPERTY
W
SciTegic.value.DoubleValue
-60.576

@<SCITEGIC>MOL_PROPERTY
W(PB)
SciTegic.value.DoubleValue
-62.262

@<SCITEGIC>MOL_PROPERTY
W(SA)
SciTegic.value.DoubleValue
1.687

@<SCITEGIC>MOL_PROPERTY
Valence
SciTegic.value.DoubleValue
2.414

@<SCITEGIC>MOL_PROPERTY
Coulomb
SciTegic.value.DoubleValue
44.831

@<SCITEGIC>MOL_PROPERTY
VdW
SciTegic.value.DoubleValue
0.178

@<SCITEGIC>MOL_PROPERTY
VdW6
SciTegic.value.DoubleValue
-3.743

@<SCITEGIC>MOL_PROPERTY
VdW12
SciTegic.value.DoubleValue
3.922

@<SCITEGIC>MOL_PROPERTY
Bond
SciTegic.value.DoubleValue
0.138

@<SCITEGIC>MOL_PROPERTY
Angle
SciTegic.value.DoubleValue
0.941

@<SCITEGIC>MOL_PROPERTY
Pdih
SciTegic.value.DoubleValue
1.335

@<SCITEGIC>MOL_PROPERTY
Idih
SciTegic.value.DoubleValue
0.000

@<SCITEGIC>MOL_PROPERTY
Tether
SciTegic.value.DoubleValue
0.000

@<TRIPOS>MOLECULE
guest-1_confgen4.mol2 : confsearch ligand conformer 707
          17          16           1
SMALL
USER_CHARGES
 
@<TRIPOS>ATOM
       1    N1      18.503552   20.241213   22.304220 N.4        1 MOL1        -0.5891
       2    H1      18.285090   19.295572   22.630539 H          1 MOL1         0.3726
       3    H2      17.817184   20.478372   21.581702 H          1 MOL1         0.3726
       4    H3      18.337459   20.875460   23.092136 H          1 MOL1         0.3726
       5    C1      19.926051   20.342946   21.788463 C.3        1 MOL1         0.0314
       6    H4      20.603790   20.107400   22.613080 H          1 MOL1         0.0999
       7    H5      20.100083   21.381557   21.494289 H          1 MOL1         0.0999
       8    C2      20.222035   19.416514   20.590949 C.3        1 MOL1        -0.1308
       9    H6      19.564472   19.687651   19.754381 H          1 MOL1         0.1025
      10    H7      21.247733   19.604286   20.246727 H          1 MOL1         0.1025
      11    C3      20.058466   17.908582   20.905497 C.3        1 MOL1        -0.1243
      12    H8      20.274379   17.331858   19.995181 H          1 MOL1         0.1025
      13    H9      19.013755   17.687799   21.163347 H          1 MOL1         0.1025
      14    C4      20.988750   17.422408   22.040401 C.3        1 MOL1        -0.2258
      15    H10     22.040487   17.631269   21.805253 H          1 MOL1         0.1036
      16    H11     20.886834   16.338949   22.184269 H          1 MOL1         0.1036
      17    H12     20.748524   17.906928   22.995115 H          1 MOL1         0.1036
@<TRIPOS>BOND
    1     1     2    1
    2     1     3    1
    3     1     4    1
    4     1     5    1
    5     5     6    1
    6     5     7    1
    7     5     8    1
    8     8     9    1
    9     8    10    1
   10     8    11    1
   11    11    12    1
   12    11    13    1
   13    11    14    1
   14    14    15    1
   15    14    16    1
   16    14    17    1
@<TRIPOS>SUBSTRUCTURE
       1 MOL1            1 RESIDUE      1      MOL     
@<SCITEGIC>MOL_PROPERTY
VConf Rank
SciTegic.value.IntegerValue
707

@<SCITEGIC>MOL_PROPERTY
Conf_Id
SciTegic.value.IntegerValue
1

@<SCITEGIC>MOL_PROPERTY
Delta U+W
SciTegic.value.DoubleValue
0.685

@<SCITEGIC>MOL_PROPERTY
U+W
SciTegic.value.DoubleValue
-15.179

@<SCITEGIC>MOL_PROPERTY
Grad RMS
SciTegic.value.DoubleValue
0.000000

@<SCITEGIC>MOL_PROPERTY
U
SciTegic.value.DoubleValue
45.697

@<SCITEGIC>MOL_PROPERTY
W
SciTegic.value.DoubleValue
-60.876

@<SCITEGIC>MOL_PROPERTY
W(PB)
SciTegic.value.DoubleValue
-62.586

@<SCITEGIC>MOL_PROPERTY
W(SA)
SciTegic.value.DoubleValue
1.710

@<SCITEGIC>MOL_PROPERTY
Valence
SciTegic.value.DoubleValue
1.263

@<SCITEGIC>MOL_PROPERTY
Coulomb
SciTegic.value.DoubleValue
44.179

@<SCITEGIC>MOL_PROPERTY
VdW
SciTegic.value.DoubleValue
0.255

@<SCITEGIC>MOL_PROPERTY
VdW6
SciTegic.value.DoubleValue
-3.552

@<SCITEGIC>MOL_PROPERTY
VdW12
SciTegic.value.DoubleValue
3.807

@<SCITEGIC>MOL_PROPERTY
Bond
SciTegic.value.DoubleValue
0.125

@<SCITEGIC>MOL_PROPERTY
Angle
SciTegic.value.DoubleValue
0.616

@<SCITEGIC>MOL_PROPERTY
Pdih
SciTegic.value.DoubleValue
0.521

@<SCITEGIC>MOL_PROPERTY
Idih
SciTegic.value.DoubleValue
0.000

@<SCITEGIC>MOL_PROPERTY
Tether
SciTegic.value.DoubleValue
0.000

@<TRIPOS>MOLECULE
guest-1_confgen4.mol2 : confsearch ligand conformer 708
          17          16           1
SMALL
USER_CHARGES
 
@<TRIPOS>ATOM
       1    N1      20.412947   20.736609   22.490931 N.4        1 MOL1        -0.5891
       2    H1      20.429170   20.637024   23.510341 H          1 MOL1         0.3726
       3    H2      19.431339   20.813395   22.209864 H          1 MOL1         0.3726
       4    H3      20.857809   21.633842   22.272437 H          1 MOL1         0.3726
       5    C1      21.106797   19.579587   21.798305 C.3        1 MOL1         0.0314
       6    H4      22.153425   19.581411   22.114695 H          1 MOL1         0.0999
       7    H5      21.079294   19.763004   20.721083 H          1 MOL1         0.0999
       8    C2      20.482083   18.203417   22.107837 C.3        1 MOL1        -0.1308
       9    H6      21.084646   17.426253   21.619230 H          1 MOL1         0.1025
      10    H7      20.551292   18.010639   23.186630 H          1 MOL1         0.1025
      11    C3      19.007388   18.064628   21.654437 C.3        1 MOL1        -0.1243
      12    H8      18.375053   18.775518   22.203475 H          1 MOL1         0.1025
      13    H9      18.645901   17.063433   21.928006 H          1 MOL1         0.1025
      14    C4      18.819835   18.267978   20.133493 C.3        1 MOL1        -0.2258
      15    H10     17.773826   18.096400   19.848197 H          1 MOL1         0.1036
      16    H11     19.441867   17.566892   19.561984 H          1 MOL1         0.1036
      17    H12     19.083316   19.288009   19.826796 H          1 MOL1         0.1036
@<TRIPOS>BOND
    1     1     2    1
    2     1     3    1
    3     1     4    1
    4     1     5    1
    5     5     6    1
    6     5     7    1
    7     5     8    1
    8     8     9    1
    9     8    10    1
   10     8    11    1
   11    11    12    1
   12    11    13    1
   13    11    14    1
   14    14    15    1
   15    14    16    1
   16    14    17    1
@<TRIPOS>SUBSTRUCTURE
       1 MOL1            1 RESIDUE      1      MOL     
@<SCITEGIC>MOL_PROPERTY
VConf Rank
SciTegic.value.IntegerValue
708

@<SCITEGIC>MOL_PROPERTY
Conf_Id
SciTegic.value.IntegerValue
43

@<SCITEGIC>MOL_PROPERTY
Delta U+W
SciTegic.value.DoubleValue
0.642

@<SCITEGIC>MOL_PROPERTY
U+W
SciTegic.value.DoubleValue
-15.222

@<SCITEGIC>MOL_PROPERTY
Grad RMS
SciTegic.value.DoubleValue
0.000000

@<SCITEGIC>MOL_PROPERTY
U
SciTegic.value.DoubleValue
45.697

@<SCITEGIC>MOL_PROPERTY
W
SciTegic.value.DoubleValue
-60.919

@<SCITEGIC>MOL_PROPERTY
W(PB)
SciTegic.value.DoubleValue
-62.631

@<SCITEGIC>MOL_PROPERTY
W(SA)
SciTegic.value.DoubleValue
1.712

@<SCITEGIC>MOL_PROPERTY
Valence
SciTegic.value.DoubleValue
1.262

@<SCITEGIC>MOL_PROPERTY
Coulomb
SciTegic.value.DoubleValue
44.179

@<SCITEGIC>MOL_PROPERTY
VdW
SciTegic.value.DoubleValue
0.255

@<SCITEGIC>MOL_PROPERTY
VdW6
SciTegic.value.DoubleValue
-3.552

@<SCITEGIC>MOL_PROPERTY
VdW12
SciTegic.value.DoubleValue
3.807

@<SCITEGIC>MOL_PROPERTY
Bond
SciTegic.value.DoubleValue
0.125

@<SCITEGIC>MOL_PROPERTY
Angle
SciTegic.value.DoubleValue
0.616

@<SCITEGIC>MOL_PROPERTY
Pdih
SciTegic.value.DoubleValue
0.521

@<SCITEGIC>MOL_PROPERTY
Idih
SciTegic.value.DoubleValue
0.000

@<SCITEGIC>MOL_PROPERTY
Tether
SciTegic.value.DoubleValue
0.000

@<TRIPOS>MOLECULE
guest-1_confgen4.mol2 : confsearch ligand conformer 709
          17          16           1
SMALL
USER_CHARGES
 
@<TRIPOS>ATOM
       1    N1      19.153649   17.250983   23.235631 N.4        1 MOL1        -0.5891
       2    H1      20.040950   16.745776   23.320233 H          1 MOL1         0.3726
       3    H2      18.570678   16.726512   22.576258 H          1 MOL1         0.3726
       4    H3      18.692108   17.194084   24.149223 H          1 MOL1         0.3726
       5    C1      19.357457   18.687039   22.795673 C.3        1 MOL1         0.0314
       6    H4      19.958586   19.191321   23.557163 H          1 MOL1         0.0999
       7    H5      18.377565   19.170624   22.757192 H          1 MOL1         0.0999
       8    C2      20.049057   18.809520   21.425656 C.3        1 MOL1        -0.1308
       9    H6      21.026011   18.309406   21.463600 H          1 MOL1         0.1025
      10    H7      19.450363   18.288915   20.666363 H          1 MOL1         0.1025
      11    C3      20.237287   20.286683   21.015679 C.3        1 MOL1        -0.1243
      12    H8      20.833710   20.809157   21.777011 H          1 MOL1         0.1025
      13    H9      19.259992   20.788675   20.980673 H          1 MOL1         0.1025
      14    C4      20.930564   20.417420   19.642279 C.3        1 MOL1        -0.2258
      15    H10     21.054880   21.473450   19.369527 H          1 MOL1         0.1036
      16    H11     20.339716   19.933747   18.853503 H          1 MOL1         0.1036
      17    H12     21.925836   19.954333   19.656119 H          1 MOL1         0.1036
@<TRIPOS>BOND
    1     1     2    1
    2     1     3    1
    3     1     4    1
    4     1     5    1
    5     5     6    1
    6     5     7    1
    7     5     8    1
    8     8     9    1
    9     8    10    1
   10     8    11    1
   11    11    12    1
   12    11    13    1
   13    11    14    1
   14    14    15    1
   15    14    16    1
   16    14    17    1
@<TRIPOS>SUBSTRUCTURE
       1 MOL1            1 RESIDUE      1      MOL     
@<SCITEGIC>MOL_PROPERTY
VConf Rank
SciTegic.value.IntegerValue
709

@<SCITEGIC>MOL_PROPERTY
Conf_Id
SciTegic.value.IntegerValue
7

@<SCITEGIC>MOL_PROPERTY
Delta U+W
SciTegic.value.DoubleValue
0.000

@<SCITEGIC>MOL_PROPERTY
U+W
SciTegic.value.DoubleValue
-15.865

@<SCITEGIC>MOL_PROPERTY
Grad RMS
SciTegic.value.DoubleValue
0.000000

@<SCITEGIC>MOL_PROPERTY
U
SciTegic.value.DoubleValue
44.664

@<SCITEGIC>MOL_PROPERTY
W
SciTegic.value.DoubleValue
-60.529

@<SCITEGIC>MOL_PROPERTY
W(PB)
SciTegic.value.DoubleValue
-62.309

@<SCITEGIC>MOL_PROPERTY
W(SA)
SciTegic.value.DoubleValue
1.780

@<SCITEGIC>MOL_PROPERTY
Valence
SciTegic.value.DoubleValue
0.872

@<SCITEGIC>MOL_PROPERTY
Coulomb
SciTegic.value.DoubleValue
43.648

@<SCITEGIC>MOL_PROPERTY
VdW
SciTegic.value.DoubleValue
0.144

@<SCITEGIC>MOL_PROPERTY
VdW6
SciTegic.value.DoubleValue
-2.370

@<SCITEGIC>MOL_PROPERTY
VdW12
SciTegic.value.DoubleValue
2.515

@<SCITEGIC>MOL_PROPERTY
Bond
SciTegic.value.DoubleValue
0.080

@<SCITEGIC>MOL_PROPERTY
Angle
SciTegic.value.DoubleValue
0.376

@<SCITEGIC>MOL_PROPERTY
Pdih
SciTegic.value.DoubleValue
0.416

@<SCITEGIC>MOL_PROPERTY
Idih
SciTegic.value.DoubleValue
0.000

@<SCITEGIC>MOL_PROPERTY
Tether
SciTegic.value.DoubleValue
0.000

@<TRIPOS>MOLECULE
guest-1_confgen4.mol2 : confsearch ligand conformer 710
          17          16           1
SMALL
USER_CHARGES
 
@<TRIPOS>ATOM
       1    N1      19.230039   17.655950   19.813160 N.4        1 MOL1        -0.5891
       2    H1      19.992018   17.591410   19.131346 H          1 MOL1         0.3726
       3    H2      18.517626   18.272346   19.410456 H          1 MOL1         0.3726
       4    H3      18.811497   16.722490   19.878872 H          1 MOL1         0.3726
       5    C1      19.714427   18.152713   21.160732 C.3        1 MOL1         0.0314
       6    H4      20.445746   17.435177   21.542470 H          1 MOL1         0.0999
       7    H5      18.859070   18.165512   21.841201 H          1 MOL1         0.0999
       8    C2      20.349611   19.555051   21.097900 C.3        1 MOL1        -0.1308
       9    H6      21.182129   19.541204   20.381940 H          1 MOL1         0.1025
      10    H7      19.615603   20.275401   20.712910 H          1 MOL1         0.1025
      11    C3      20.875025   20.033947   22.471437 C.3        1 MOL1        -0.1243
      12    H8      21.384576   20.999122   22.341920 H          1 MOL1         0.1025
      13    H9      21.634316   19.331352   22.842948 H          1 MOL1         0.1025
      14    C4      19.754840   20.192672   23.524979 C.3        1 MOL1        -0.2258
      15    H10     18.978985   20.886151   23.175319 H          1 MOL1         0.1036
      16    H11     20.162330   20.591694   24.462924 H          1 MOL1         0.1036
      17    H12     19.277544   19.231581   23.754286 H          1 MOL1         0.1036
@<TRIPOS>BOND
    1     1     2    1
    2     1     3    1
    3     1     4    1
    4     1     5    1
    5     5     6    1
    6     5     7    1
    7     5     8    1
    8     8     9    1
    9     8    10    1
   10     8    11    1
   11    11    12    1
   12    11    13    1
   13    11    14    1
   14    14    15    1
   15    14    16    1
   16    14    17    1
@<TRIPOS>SUBSTRUCTURE
       1 MOL1            1 RESIDUE      1      MOL     
@<SCITEGIC>MOL_PROPERTY
VConf Rank
SciTegic.value.IntegerValue
710

@<SCITEGIC>MOL_PROPERTY
Conf_Id
SciTegic.value.IntegerValue
36

@<SCITEGIC>MOL_PROPERTY
Delta U+W
SciTegic.value.DoubleValue
0.275

@<SCITEGIC>MOL_PROPERTY
U+W
SciTegic.value.DoubleValue
-15.590

@<SCITEGIC>MOL_PROPERTY
Grad RMS
SciTegic.value.DoubleValue
0.000000

@<SCITEGIC>MOL_PROPERTY
U
SciTegic.value.DoubleValue
45.174

@<SCITEGIC>MOL_PROPERTY
W
SciTegic.value.DoubleValue
-60.765

@<SCITEGIC>MOL_PROPERTY
W(PB)
SciTegic.value.DoubleValue
-62.518

@<SCITEGIC>MOL_PROPERTY
W(SA)
SciTegic.value.DoubleValue
1.754

@<SCITEGIC>MOL_PROPERTY
Valence
SciTegic.value.DoubleValue
1.161

@<SCITEGIC>MOL_PROPERTY
Coulomb
SciTegic.value.DoubleValue
43.789

@<SCITEGIC>MOL_PROPERTY
VdW
SciTegic.value.DoubleValue
0.224

@<SCITEGIC>MOL_PROPERTY
VdW6
SciTegic.value.DoubleValue
-2.897

@<SCITEGIC>MOL_PROPERTY
VdW12
SciTegic.value.DoubleValue
3.121

@<SCITEGIC>MOL_PROPERTY
Bond
SciTegic.value.DoubleValue
0.100

@<SCITEGIC>MOL_PROPERTY
Angle
SciTegic.value.DoubleValue
0.500

@<SCITEGIC>MOL_PROPERTY
Pdih
SciTegic.value.DoubleValue
0.561

@<SCITEGIC>MOL_PROPERTY
Idih
SciTegic.value.DoubleValue
0.000

@<SCITEGIC>MOL_PROPERTY
Tether
SciTegic.value.DoubleValue
0.000

@<TRIPOS>MOLECULE
guest-1_confgen4.mol2 : confsearch ligand conformer 711
          17          16           1
SMALL
USER_CHARGES
 
@<TRIPOS>ATOM
       1    N1      20.315954   20.663452   20.892136 N.4        1 MOL1        -0.5891
       2    H1      19.312540   20.465475   20.863673 H          1 MOL1         0.3726
       3    H2      20.682918   20.496104   19.950429 H          1 MOL1         0.3726
       4    H3      20.421327   21.665962   21.078397 H          1 MOL1         0.3726
       5    C1      21.026441   19.818678   21.932134 C.3        1 MOL1         0.0314
       6    H4      20.643232   20.087721   22.920096 H          1 MOL1         0.0999
       7    H5      22.085129   20.089516   21.895199 H          1 MOL1         0.0999
       8    C2      20.888936   18.296957   21.715173 C.3        1 MOL1        -0.1308
       9    H6      21.034375   18.054178   20.654214 H          1 MOL1         0.1025
      10    H7      21.711864   17.806471   22.251885 H          1 MOL1         0.1025
      11    C3      19.557448   17.692164   22.229052 C.3        1 MOL1        -0.1243
      12    H8      19.454009   17.887462   23.305705 H          1 MOL1         0.1025
      13    H9      19.609694   16.599535   22.122181 H          1 MOL1         0.1025
      14    C4      18.298068   18.199229   21.490318 C.3        1 MOL1        -0.2258
      15    H10     18.081958   19.245657   21.735188 H          1 MOL1         0.1036
      16    H11     17.420055   17.610946   21.787258 H          1 MOL1         0.1036
      17    H12     18.409251   18.105209   20.402223 H          1 MOL1         0.1036
@<TRIPOS>BOND
    1     1     2    1
    2     1     3    1
    3     1     4    1
    4     1     5    1
    5     5     6    1
    6     5     7    1
    7     5     8    1
    8     8     9    1
    9     8    10    1
   10     8    11    1
   11    11    12    1
   12    11    13    1
   13    11    14    1
   14    14    15    1
   15    14    16    1
   16    14    17    1
@<TRIPOS>SUBSTRUCTURE
       1 MOL1            1 RESIDUE      1      MOL     
@<SCITEGIC>MOL_PROPERTY
VConf Rank
SciTegic.value.IntegerValue
711

@<SCITEGIC>MOL_PROPERTY
Conf_Id
SciTegic.value.IntegerValue
19

@<SCITEGIC>MOL_PROPERTY
Delta U+W
SciTegic.value.DoubleValue
2.662

@<SCITEGIC>MOL_PROPERTY
U+W
SciTegic.value.DoubleValue
-13.203

@<SCITEGIC>MOL_PROPERTY
Grad RMS
SciTegic.value.DoubleValue
0.000000

@<SCITEGIC>MOL_PROPERTY
U
SciTegic.value.DoubleValue
47.423

@<SCITEGIC>MOL_PROPERTY
W
SciTegic.value.DoubleValue
-60.626

@<SCITEGIC>MOL_PROPERTY
W(PB)
SciTegic.value.DoubleValue
-62.328

@<SCITEGIC>MOL_PROPERTY
W(SA)
SciTegic.value.DoubleValue
1.702

@<SCITEGIC>MOL_PROPERTY
Valence
SciTegic.value.DoubleValue
2.414

@<SCITEGIC>MOL_PROPERTY
Coulomb
SciTegic.value.DoubleValue
44.831

@<SCITEGIC>MOL_PROPERTY
VdW
SciTegic.value.DoubleValue
0.178

@<SCITEGIC>MOL_PROPERTY
VdW6
SciTegic.value.DoubleValue
-3.743

@<SCITEGIC>MOL_PROPERTY
VdW12
SciTegic.value.DoubleValue
3.921

@<SCITEGIC>MOL_PROPERTY
Bond
SciTegic.value.DoubleValue
0.138

@<SCITEGIC>MOL_PROPERTY
Angle
SciTegic.value.DoubleValue
0.941

@<SCITEGIC>MOL_PROPERTY
Pdih
SciTegic.value.DoubleValue
1.335

@<SCITEGIC>MOL_PROPERTY
Idih
SciTegic.value.DoubleValue
0.000

@<SCITEGIC>MOL_PROPERTY
Tether
SciTegic.value.DoubleValue
0.000

@<TRIPOS>MOLECULE
guest-1_confgen4.mol2 : confsearch ligand conformer 712
          17          16           1
SMALL
USER_CHARGES
 
@<TRIPOS>ATOM
       1    N1      19.311068   20.311611   20.348114 N.4        1 MOL1        -0.5891
       2    H1      19.575194   21.095161   19.742219 H          1 MOL1         0.3726
       3    H2      18.287345   20.274003   20.355782 H          1 MOL1         0.3726
       4    H3      19.640267   19.455317   19.895088 H          1 MOL1         0.3726
       5    C1      19.879894   20.462615   21.745853 C.3        1 MOL1         0.0314
       6    H4      19.479442   21.394084   22.155169 H          1 MOL1         0.0999
       7    H5      20.965681   20.566022   21.670510 H          1 MOL1         0.0999
       8    C2      19.530777   19.302359   22.701643 C.3        1 MOL1        -0.1308
       9    H6      19.643357   19.670309   23.730130 H          1 MOL1         0.1025
      10    H7      18.472177   19.031695   22.592848 H          1 MOL1         0.1025
      11    C3      20.427080   18.047615   22.543651 C.3        1 MOL1        -0.1243
      12    H8      20.163557   17.332233   23.335342 H          1 MOL1         0.1025
      13    H9      21.477698   18.319657   22.717478 H          1 MOL1         0.1025
      14    C4      20.298192   17.338235   21.176520 C.3        1 MOL1        -0.2258
      15    H10     19.247676   17.137289   20.929155 H          1 MOL1         0.1036
      16    H11     20.825550   16.375601   21.196131 H          1 MOL1         0.1036
      17    H12     20.744258   17.933041   20.370970 H          1 MOL1         0.1036
@<TRIPOS>BOND
    1     1     2    1
    2     1     3    1
    3     1     4    1
    4     1     5    1
    5     5     6    1
    6     5     7    1
    7     5     8    1
    8     8     9    1
    9     8    10    1
   10     8    11    1
   11    11    12    1
   12    11    13    1
   13    11    14    1
   14    14    15    1
   15    14    16    1
   16    14    17    1
@<TRIPOS>SUBSTRUCTURE
       1 MOL1            1 RESIDUE      1      MOL     
@<SCITEGIC>MOL_PROPERTY
VConf Rank
SciTegic.value.IntegerValue
712

@<SCITEGIC>MOL_PROPERTY
Conf_Id
SciTegic.value.IntegerValue
44

@<SCITEGIC>MOL_PROPERTY
Delta U+W
SciTegic.value.DoubleValue
2.712

@<SCITEGIC>MOL_PROPERTY
U+W
SciTegic.value.DoubleValue
-13.153

@<SCITEGIC>MOL_PROPERTY
Grad RMS
SciTegic.value.DoubleValue
0.000000

@<SCITEGIC>MOL_PROPERTY
U
SciTegic.value.DoubleValue
47.423

@<SCITEGIC>MOL_PROPERTY
W
SciTegic.value.DoubleValue
-60.576

@<SCITEGIC>MOL_PROPERTY
W(PB)
SciTegic.value.DoubleValue
-62.262

@<SCITEGIC>MOL_PROPERTY
W(SA)
SciTegic.value.DoubleValue
1.687

@<SCITEGIC>MOL_PROPERTY
Valence
SciTegic.value.DoubleValue
2.414

@<SCITEGIC>MOL_PROPERTY
Coulomb
SciTegic.value.DoubleValue
44.831

@<SCITEGIC>MOL_PROPERTY
VdW
SciTegic.value.DoubleValue
0.178

@<SCITEGIC>MOL_PROPERTY
VdW6
SciTegic.value.DoubleValue
-3.743

@<SCITEGIC>MOL_PROPERTY
VdW12
SciTegic.value.DoubleValue
3.922

@<SCITEGIC>MOL_PROPERTY
Bond
SciTegic.value.DoubleValue
0.138

@<SCITEGIC>MOL_PROPERTY
Angle
SciTegic.value.DoubleValue
0.941

@<SCITEGIC>MOL_PROPERTY
Pdih
SciTegic.value.DoubleValue
1.335

@<SCITEGIC>MOL_PROPERTY
Idih
SciTegic.value.DoubleValue
0.000

@<SCITEGIC>MOL_PROPERTY
Tether
SciTegic.value.DoubleValue
0.000

@<TRIPOS>MOLECULE
guest-1_confgen4.mol2 : confsearch ligand conformer 713
          17          16           1
SMALL
USER_CHARGES
 
@<TRIPOS>ATOM
       1    N1      21.866351   18.649797   21.635856 N.4        1 MOL1        -0.5891
       2    H1      21.700481   19.418234   22.291934 H          1 MOL1         0.3726
       3    H2      22.344310   19.045379   20.820719 H          1 MOL1         0.3726
       4    H3      22.527407   18.009031   22.086512 H          1 MOL1         0.3726
       5    C1      20.576499   17.950967   21.251439 C.3        1 MOL1         0.0314
       6    H4      20.135754   17.528919   22.158315 H          1 MOL1         0.0999
       7    H5      20.832194   17.123848   20.583584 H          1 MOL1         0.0999
       8    C2      19.552916   18.871687   20.555397 C.3        1 MOL1        -0.1308
       9    H6      19.990000   19.258251   19.625196 H          1 MOL1         0.1025
      10    H7      18.684271   18.269474   20.257740 H          1 MOL1         0.1025
      11    C3      19.074922   20.057284   21.430290 C.3        1 MOL1        -0.1243
      12    H8      18.364032   20.661541   20.849417 H          1 MOL1         0.1025
      13    H9      19.919299   20.721076   21.660639 H          1 MOL1         0.1025
      14    C4      18.394678   19.605512   22.742909 C.3        1 MOL1        -0.2258
      15    H10     17.545355   18.940681   22.538663 H          1 MOL1         0.1036
      16    H11     18.014656   20.472952   23.297977 H          1 MOL1         0.1036
      17    H12     19.095517   19.074130   23.398962 H          1 MOL1         0.1036
@<TRIPOS>BOND
    1     1     2    1
    2     1     3    1
    3     1     4    1
    4     1     5    1
    5     5     6    1
    6     5     7    1
    7     5     8    1
    8     8     9    1
    9     8    10    1
   10     8    11    1
   11    11    12    1
   12    11    13    1
   13    11    14    1
   14    14    15    1
   15    14    16    1
   16    14    17    1
@<TRIPOS>SUBSTRUCTURE
       1 MOL1            1 RESIDUE      1      MOL     
@<SCITEGIC>MOL_PROPERTY
VConf Rank
SciTegic.value.IntegerValue
713

@<SCITEGIC>MOL_PROPERTY
Conf_Id
SciTegic.value.IntegerValue
1

@<SCITEGIC>MOL_PROPERTY
Delta U+W
SciTegic.value.DoubleValue
0.685

@<SCITEGIC>MOL_PROPERTY
U+W
SciTegic.value.DoubleValue
-15.179

@<SCITEGIC>MOL_PROPERTY
Grad RMS
SciTegic.value.DoubleValue
0.000000

@<SCITEGIC>MOL_PROPERTY
U
SciTegic.value.DoubleValue
45.697

@<SCITEGIC>MOL_PROPERTY
W
SciTegic.value.DoubleValue
-60.876

@<SCITEGIC>MOL_PROPERTY
W(PB)
SciTegic.value.DoubleValue
-62.586

@<SCITEGIC>MOL_PROPERTY
W(SA)
SciTegic.value.DoubleValue
1.710

@<SCITEGIC>MOL_PROPERTY
Valence
SciTegic.value.DoubleValue
1.263

@<SCITEGIC>MOL_PROPERTY
Coulomb
SciTegic.value.DoubleValue
44.179

@<SCITEGIC>MOL_PROPERTY
VdW
SciTegic.value.DoubleValue
0.255

@<SCITEGIC>MOL_PROPERTY
VdW6
SciTegic.value.DoubleValue
-3.552

@<SCITEGIC>MOL_PROPERTY
VdW12
SciTegic.value.DoubleValue
3.807

@<SCITEGIC>MOL_PROPERTY
Bond
SciTegic.value.DoubleValue
0.125

@<SCITEGIC>MOL_PROPERTY
Angle
SciTegic.value.DoubleValue
0.616

@<SCITEGIC>MOL_PROPERTY
Pdih
SciTegic.value.DoubleValue
0.521

@<SCITEGIC>MOL_PROPERTY
Idih
SciTegic.value.DoubleValue
0.000

@<SCITEGIC>MOL_PROPERTY
Tether
SciTegic.value.DoubleValue
0.000

@<TRIPOS>MOLECULE
guest-1_confgen4.mol2 : confsearch ligand conformer 714
          17          16           1
SMALL
USER_CHARGES
 
@<TRIPOS>ATOM
       1    N1      18.871541   19.118463   23.280478 N.4        1 MOL1        -0.5891
       2    H1      18.950270   18.251108   23.819806 H          1 MOL1         0.3726
       3    H2      18.209778   18.942533   22.519186 H          1 MOL1         0.3726
       4    H3      18.440055   19.814269   23.897196 H          1 MOL1         0.3726
       5    C1      20.217111   19.584429   22.758774 C.3        1 MOL1         0.0314
       6    H4      20.856574   19.788017   23.622011 H          1 MOL1         0.0999
       7    H5      20.065912   20.524183   22.221367 H          1 MOL1         0.0999
       8    C2      20.914612   18.563779   21.835906 C.3        1 MOL1        -0.1308
       9    H6      21.902632   18.956442   21.561252 H          1 MOL1         0.1025
      10    H7      21.098836   17.637868   22.396708 H          1 MOL1         0.1025
      11    C3      20.121065   18.234755   20.546881 C.3        1 MOL1        -0.1243
      12    H8      19.166393   17.755603   20.803141 H          1 MOL1         0.1025
      13    H9      20.685271   17.493564   19.963605 H          1 MOL1         0.1025
      14    C4      19.859929   19.475987   19.663169 C.3        1 MOL1        -0.2258
      15    H10     19.354364   19.186725   18.732739 H          1 MOL1         0.1036
      16    H11     20.800749   19.972561   19.392354 H          1 MOL1         0.1036
      17    H12     19.220894   20.207755   20.173169 H          1 MOL1         0.1036
@<TRIPOS>BOND
    1     1     2    1
    2     1     3    1
    3     1     4    1
    4     1     5    1
    5     5     6    1
    6     5     7    1
    7     5     8    1
    8     8     9    1
    9     8    10    1
   10     8    11    1
   11    11    12    1
   12    11    13    1
   13    11    14    1
   14    14    15    1
   15    14    16    1
   16    14    17    1
@<TRIPOS>SUBSTRUCTURE
       1 MOL1            1 RESIDUE      1      MOL     
@<SCITEGIC>MOL_PROPERTY
VConf Rank
SciTegic.value.IntegerValue
714

@<SCITEGIC>MOL_PROPERTY
Conf_Id
SciTegic.value.IntegerValue
43

@<SCITEGIC>MOL_PROPERTY
Delta U+W
SciTegic.value.DoubleValue
0.642

@<SCITEGIC>MOL_PROPERTY
U+W
SciTegic.value.DoubleValue
-15.222

@<SCITEGIC>MOL_PROPERTY
Grad RMS
SciTegic.value.DoubleValue
0.000000

@<SCITEGIC>MOL_PROPERTY
U
SciTegic.value.DoubleValue
45.697

@<SCITEGIC>MOL_PROPERTY
W
SciTegic.value.DoubleValue
-60.919

@<SCITEGIC>MOL_PROPERTY
W(PB)
SciTegic.value.DoubleValue
-62.631

@<SCITEGIC>MOL_PROPERTY
W(SA)
SciTegic.value.DoubleValue
1.712

@<SCITEGIC>MOL_PROPERTY
Valence
SciTegic.value.DoubleValue
1.262

@<SCITEGIC>MOL_PROPERTY
Coulomb
SciTegic.value.DoubleValue
44.179

@<SCITEGIC>MOL_PROPERTY
VdW
SciTegic.value.DoubleValue
0.255

@<SCITEGIC>MOL_PROPERTY
VdW6
SciTegic.value.DoubleValue
-3.552

@<SCITEGIC>MOL_PROPERTY
VdW12
SciTegic.value.DoubleValue
3.807

@<SCITEGIC>MOL_PROPERTY
Bond
SciTegic.value.DoubleValue
0.125

@<SCITEGIC>MOL_PROPERTY
Angle
SciTegic.value.DoubleValue
0.616

@<SCITEGIC>MOL_PROPERTY
Pdih
SciTegic.value.DoubleValue
0.521

@<SCITEGIC>MOL_PROPERTY
Idih
SciTegic.value.DoubleValue
0.000

@<SCITEGIC>MOL_PROPERTY
Tether
SciTegic.value.DoubleValue
0.000

@<TRIPOS>MOLECULE
guest-1_confgen4.mol2 : confsearch ligand conformer 715
          17          16           1
SMALL
USER_CHARGES
 
@<TRIPOS>ATOM
       1    N1      18.120971   17.278416   21.806092 N.4        1 MOL1        -0.5891
       2    H1      18.721504   16.456164   21.692260 H          1 MOL1         0.3726
       3    H2      17.669791   17.448728   20.902141 H          1 MOL1         0.3726
       4    H3      17.378994   17.014735   22.462485 H          1 MOL1         0.3726
       5    C1      18.897978   18.486641   22.289629 C.3        1 MOL1         0.0314
       6    H4      19.323736   18.245048   23.267323 H          1 MOL1         0.0999
       7    H5      18.192793   19.312370   22.417733 H          1 MOL1         0.0999
       8    C2      20.021680   18.910591   21.326394 C.3        1 MOL1        -0.1308
       9    H6      20.719330   18.073842   21.188097 H          1 MOL1         0.1025
      10    H7      19.592268   19.137632   20.341484 H          1 MOL1         0.1025
      11    C3      20.787257   20.143091   21.855881 C.3        1 MOL1        -0.1243
      12    H8      21.214532   19.917539   22.843246 H          1 MOL1         0.1025
      13    H9      20.088872   20.980050   21.997598 H          1 MOL1         0.1025
      14    C4      21.916168   20.574160   20.894791 C.3        1 MOL1        -0.2258
      15    H10     22.447379   21.450362   21.288664 H          1 MOL1         0.1036
      16    H11     21.515321   20.839603   19.907842 H          1 MOL1         0.1036
      17    H12     22.649833   19.768674   20.760123 H          1 MOL1         0.1036
@<TRIPOS>BOND
    1     1     2    1
    2     1     3    1
    3     1     4    1
    4     1     5    1
    5     5     6    1
    6     5     7    1
    7     5     8    1
    8     8     9    1
    9     8    10    1
   10     8    11    1
   11    11    12    1
   12    11    13    1
   13    11    14    1
   14    14    15    1
   15    14    16    1
   16    14    17    1
@<TRIPOS>SUBSTRUCTURE
       1 MOL1            1 RESIDUE      1      MOL     
@<SCITEGIC>MOL_PROPERTY
VConf Rank
SciTegic.value.IntegerValue
715

@<SCITEGIC>MOL_PROPERTY
Conf_Id
SciTegic.value.IntegerValue
7

@<SCITEGIC>MOL_PROPERTY
Delta U+W
SciTegic.value.DoubleValue
0.000

@<SCITEGIC>MOL_PROPERTY
U+W
SciTegic.value.DoubleValue
-15.865

@<SCITEGIC>MOL_PROPERTY
Grad RMS
SciTegic.value.DoubleValue
0.000000

@<SCITEGIC>MOL_PROPERTY
U
SciTegic.value.DoubleValue
44.664

@<SCITEGIC>MOL_PROPERTY
W
SciTegic.value.DoubleValue
-60.529

@<SCITEGIC>MOL_PROPERTY
W(PB)
SciTegic.value.DoubleValue
-62.309

@<SCITEGIC>MOL_PROPERTY
W(SA)
SciTegic.value.DoubleValue
1.780

@<SCITEGIC>MOL_PROPERTY
Valence
SciTegic.value.DoubleValue
0.872

@<SCITEGIC>MOL_PROPERTY
Coulomb
SciTegic.value.DoubleValue
43.648

@<SCITEGIC>MOL_PROPERTY
VdW
SciTegic.value.DoubleValue
0.144

@<SCITEGIC>MOL_PROPERTY
VdW6
SciTegic.value.DoubleValue
-2.370

@<SCITEGIC>MOL_PROPERTY
VdW12
SciTegic.value.DoubleValue
2.515

@<SCITEGIC>MOL_PROPERTY
Bond
SciTegic.value.DoubleValue
0.080

@<SCITEGIC>MOL_PROPERTY
Angle
SciTegic.value.DoubleValue
0.376

@<SCITEGIC>MOL_PROPERTY
Pdih
SciTegic.value.DoubleValue
0.416

@<SCITEGIC>MOL_PROPERTY
Idih
SciTegic.value.DoubleValue
0.000

@<SCITEGIC>MOL_PROPERTY
Tether
SciTegic.value.DoubleValue
0.000

@<TRIPOS>MOLECULE
guest-1_confgen4.mol2 : confsearch ligand conformer 716
          17          16           1
SMALL
USER_CHARGES
 
@<TRIPOS>ATOM
       1    N1      20.730114   17.393195   23.131988 N.4        1 MOL1        -0.5891
       2    H1      21.467707   17.795370   23.718383 H          1 MOL1         0.3726
       3    H2      21.189794   16.795527   22.438350 H          1 MOL1         0.3726
       4    H3      20.176194   16.775968   23.734522 H          1 MOL1         0.3726
       5    C1      19.874889   18.462625   22.482169 C.3        1 MOL1         0.0314
       6    H4      19.394041   19.039766   23.276588 H          1 MOL1         0.0999
       7    H5      19.095330   17.962459   21.901687 H          1 MOL1         0.0999
       8    C2      20.677107   19.408781   21.568279 C.3        1 MOL1        -0.1308
       9    H6      21.482147   19.875391   22.151428 H          1 MOL1         0.1025
      10    H7      21.161415   18.828888   20.771373 H          1 MOL1         0.1025
      11    C3      19.800603   20.518791   20.942480 C.3        1 MOL1        -0.1243
      12    H8      20.444247   21.202048   20.370760 H          1 MOL1         0.1025
      13    H9      19.341375   21.121202   21.738969 H          1 MOL1         0.1025
      14    C4      18.699102   19.965053   20.009728 C.3        1 MOL1        -0.2258
      15    H10     19.131608   19.353428   19.207246 H          1 MOL1         0.1036
      16    H11     18.142515   20.787012   19.541111 H          1 MOL1         0.1036
      17    H12     17.977193   19.348268   20.559740 H          1 MOL1         0.1036
@<TRIPOS>BOND
    1     1     2    1
    2     1     3    1
    3     1     4    1
    4     1     5    1
    5     5     6    1
    6     5     7    1
    7     5     8    1
    8     8     9    1
    9     8    10    1
   10     8    11    1
   11    11    12    1
   12    11    13    1
   13    11    14    1
   14    14    15    1
   15    14    16    1
   16    14    17    1
@<TRIPOS>SUBSTRUCTURE
       1 MOL1            1 RESIDUE      1      MOL     
@<SCITEGIC>MOL_PROPERTY
VConf Rank
SciTegic.value.IntegerValue
716

@<SCITEGIC>MOL_PROPERTY
Conf_Id
SciTegic.value.IntegerValue
36

@<SCITEGIC>MOL_PROPERTY
Delta U+W
SciTegic.value.DoubleValue
0.275

@<SCITEGIC>MOL_PROPERTY
U+W
SciTegic.value.DoubleValue
-15.590

@<SCITEGIC>MOL_PROPERTY
Grad RMS
SciTegic.value.DoubleValue
0.000000

@<SCITEGIC>MOL_PROPERTY
U
SciTegic.value.DoubleValue
45.174

@<SCITEGIC>MOL_PROPERTY
W
SciTegic.value.DoubleValue
-60.765

@<SCITEGIC>MOL_PROPERTY
W(PB)
SciTegic.value.DoubleValue
-62.518

@<SCITEGIC>MOL_PROPERTY
W(SA)
SciTegic.value.DoubleValue
1.754

@<SCITEGIC>MOL_PROPERTY
Valence
SciTegic.value.DoubleValue
1.161

@<SCITEGIC>MOL_PROPERTY
Coulomb
SciTegic.value.DoubleValue
43.789

@<SCITEGIC>MOL_PROPERTY
VdW
SciTegic.value.DoubleValue
0.224

@<SCITEGIC>MOL_PROPERTY
VdW6
SciTegic.value.DoubleValue
-2.897

@<SCITEGIC>MOL_PROPERTY
VdW12
SciTegic.value.DoubleValue
3.121

@<SCITEGIC>MOL_PROPERTY
Bond
SciTegic.value.DoubleValue
0.100

@<SCITEGIC>MOL_PROPERTY
Angle
SciTegic.value.DoubleValue
0.500

@<SCITEGIC>MOL_PROPERTY
Pdih
SciTegic.value.DoubleValue
0.561

@<SCITEGIC>MOL_PROPERTY
Idih
SciTegic.value.DoubleValue
0.000

@<SCITEGIC>MOL_PROPERTY
Tether
SciTegic.value.DoubleValue
0.000

@<TRIPOS>MOLECULE
guest-1_confgen4.mol2 : confsearch ligand conformer 717
          17          16           1
SMALL
USER_CHARGES
 
@<TRIPOS>ATOM
       1    N1      21.090540   17.577173   21.228475 N.4        1 MOL1        -0.5891
       2    H1      20.307173   17.272473   21.811860 H          1 MOL1         0.3726
       3    H2      21.897495   17.699659   21.847588 H          1 MOL1         0.3726
       4    H3      21.315974   16.802542   20.596061 H          1 MOL1         0.3726
       5    C1      20.764734   18.848881   20.469108 C.3        1 MOL1         0.0314
       6    H4      19.943786   18.640831   19.777688 H          1 MOL1         0.0999
       7    H5      21.648362   19.103368   19.877520 H          1 MOL1         0.0999
       8    C2      20.399045   20.048671   21.368212 C.3        1 MOL1        -0.1308
       9    H6      21.093956   20.108018   22.216331 H          1 MOL1         0.1025
      10    H7      20.557440   20.965158   20.784423 H          1 MOL1         0.1025
      11    C3      18.932885   20.051554   21.871273 C.3        1 MOL1        -0.1243
      12    H8      18.247381   20.055889   21.012153 H          1 MOL1         0.1025
      13    H9      18.753114   20.993637   22.408071 H          1 MOL1         0.1025
      14    C4      18.576550   18.875365   22.808549 C.3        1 MOL1        -0.2258
      15    H10     18.537466   17.924681   22.264171 H          1 MOL1         0.1036
      16    H11     17.586111   19.031601   23.255514 H          1 MOL1         0.1036
      17    H12     19.301186   18.785216   23.628263 H          1 MOL1         0.1036
@<TRIPOS>BOND
    1     1     2    1
    2     1     3    1
    3     1     4    1
    4     1     5    1
    5     5     6    1
    6     5     7    1
    7     5     8    1
    8     8     9    1
    9     8    10    1
   10     8    11    1
   11    11    12    1
   12    11    13    1
   13    11    14    1
   14    14    15    1
   15    14    16    1
   16    14    17    1
@<TRIPOS>SUBSTRUCTURE
       1 MOL1            1 RESIDUE      1      MOL     
@<SCITEGIC>MOL_PROPERTY
VConf Rank
SciTegic.value.IntegerValue
717

@<SCITEGIC>MOL_PROPERTY
Conf_Id
SciTegic.value.IntegerValue
19

@<SCITEGIC>MOL_PROPERTY
Delta U+W
SciTegic.value.DoubleValue
2.662

@<SCITEGIC>MOL_PROPERTY
U+W
SciTegic.value.DoubleValue
-13.203

@<SCITEGIC>MOL_PROPERTY
Grad RMS
SciTegic.value.DoubleValue
0.000000

@<SCITEGIC>MOL_PROPERTY
U
SciTegic.value.DoubleValue
47.423

@<SCITEGIC>MOL_PROPERTY
W
SciTegic.value.DoubleValue
-60.626

@<SCITEGIC>MOL_PROPERTY
W(PB)
SciTegic.value.DoubleValue
-62.328

@<SCITEGIC>MOL_PROPERTY
W(SA)
SciTegic.value.DoubleValue
1.702

@<SCITEGIC>MOL_PROPERTY
Valence
SciTegic.value.DoubleValue
2.414

@<SCITEGIC>MOL_PROPERTY
Coulomb
SciTegic.value.DoubleValue
44.831

@<SCITEGIC>MOL_PROPERTY
VdW
SciTegic.value.DoubleValue
0.178

@<SCITEGIC>MOL_PROPERTY
VdW6
SciTegic.value.DoubleValue
-3.743

@<SCITEGIC>MOL_PROPERTY
VdW12
SciTegic.value.DoubleValue
3.921

@<SCITEGIC>MOL_PROPERTY
Bond
SciTegic.value.DoubleValue
0.138

@<SCITEGIC>MOL_PROPERTY
Angle
SciTegic.value.DoubleValue
0.941

@<SCITEGIC>MOL_PROPERTY
Pdih
SciTegic.value.DoubleValue
1.335

@<SCITEGIC>MOL_PROPERTY
Idih
SciTegic.value.DoubleValue
0.000

@<SCITEGIC>MOL_PROPERTY
Tether
SciTegic.value.DoubleValue
0.000

@<TRIPOS>MOLECULE
guest-1_confgen4.mol2 : confsearch ligand conformer 718
          17          16           1
SMALL
USER_CHARGES
 
@<TRIPOS>ATOM
       1    N1      21.695797   18.665847   21.657953 N.4        1 MOL1        -0.5891
       2    H1      22.411786   17.932993   21.624627 H          1 MOL1         0.3726
       3    H2      22.163030   19.523812   21.966285 H          1 MOL1         0.3726
       4    H3      21.380216   18.823540   20.697544 H          1 MOL1         0.3726
       5    C1      20.546180   18.290211   22.573003 C.3        1 MOL1         0.0314
       6    H4      20.967089   18.142864   23.571332 H          1 MOL1         0.0999
       7    H5      20.131377   17.336051   22.237119 H          1 MOL1         0.0999
       8    C2      19.425575   19.348404   22.651011 C.3        1 MOL1        -0.1308
       9    H6      18.867266   19.176991   23.580933 H          1 MOL1         0.1025
      10    H7      19.862177   20.351766   22.742510 H          1 MOL1         0.1025
      11    C3      18.417060   19.304477   21.474716 C.3        1 MOL1        -0.1243
      12    H8      17.610645   20.021518   21.683372 H          1 MOL1         0.1025
      13    H9      17.940476   18.314946   21.433267 H          1 MOL1         0.1025
      14    C4      19.028920   19.639587   20.095511 C.3        1 MOL1        -0.2258
      15    H10     19.594686   20.579795   20.128222 H          1 MOL1         0.1036
      16    H11     18.235852   19.754269   19.345146 H          1 MOL1         0.1036
      17    H12     19.691081   18.839775   19.744053 H          1 MOL1         0.1036
@<TRIPOS>BOND
    1     1     2    1
    2     1     3    1
    3     1     4    1
    4     1     5    1
    5     5     6    1
    6     5     7    1
    7     5     8    1
    8     8     9    1
    9     8    10    1
   10     8    11    1
   11    11    12    1
   12    11    13    1
   13    11    14    1
   14    14    15    1
   15    14    16    1
   16    14    17    1
@<TRIPOS>SUBSTRUCTURE
       1 MOL1            1 RESIDUE      1      MOL     
@<SCITEGIC>MOL_PROPERTY
VConf Rank
SciTegic.value.IntegerValue
718

@<SCITEGIC>MOL_PROPERTY
Conf_Id
SciTegic.value.IntegerValue
44

@<SCITEGIC>MOL_PROPERTY
Delta U+W
SciTegic.value.DoubleValue
2.712

@<SCITEGIC>MOL_PROPERTY
U+W
SciTegic.value.DoubleValue
-13.153

@<SCITEGIC>MOL_PROPERTY
Grad RMS
SciTegic.value.DoubleValue
0.000000

@<SCITEGIC>MOL_PROPERTY
U
SciTegic.value.DoubleValue
47.423

@<SCITEGIC>MOL_PROPERTY
W
SciTegic.value.DoubleValue
-60.576

@<SCITEGIC>MOL_PROPERTY
W(PB)
SciTegic.value.DoubleValue
-62.262

@<SCITEGIC>MOL_PROPERTY
W(SA)
SciTegic.value.DoubleValue
1.687

@<SCITEGIC>MOL_PROPERTY
Valence
SciTegic.value.DoubleValue
2.414

@<SCITEGIC>MOL_PROPERTY
Coulomb
SciTegic.value.DoubleValue
44.831

@<SCITEGIC>MOL_PROPERTY
VdW
SciTegic.value.DoubleValue
0.178

@<SCITEGIC>MOL_PROPERTY
VdW6
SciTegic.value.DoubleValue
-3.743

@<SCITEGIC>MOL_PROPERTY
VdW12
SciTegic.value.DoubleValue
3.922

@<SCITEGIC>MOL_PROPERTY
Bond
SciTegic.value.DoubleValue
0.138

@<SCITEGIC>MOL_PROPERTY
Angle
SciTegic.value.DoubleValue
0.941

@<SCITEGIC>MOL_PROPERTY
Pdih
SciTegic.value.DoubleValue
1.335

@<SCITEGIC>MOL_PROPERTY
Idih
SciTegic.value.DoubleValue
0.000

@<SCITEGIC>MOL_PROPERTY
Tether
SciTegic.value.DoubleValue
0.000

@<TRIPOS>MOLECULE
guest-1_confgen4.mol2 : confsearch ligand conformer 719
          17          16           1
SMALL
USER_CHARGES
 
@<TRIPOS>ATOM
       1    N1      18.324880   17.997740   22.166337 N.4        1 MOL1        -0.5891
       2    H1      19.150347   17.456338   22.438246 H          1 MOL1         0.3726
       3    H2      17.891555   17.512425   21.375087 H          1 MOL1         0.3726
       4    H3      17.662297   17.945298   22.946659 H          1 MOL1         0.3726
       5    C1      18.681088   19.431608   21.824292 C.3        1 MOL1         0.0314
       6    H4      19.109090   19.897020   22.715926 H          1 MOL1         0.0999
       7    H5      17.753061   19.956429   21.581666 H          1 MOL1         0.0999
       8    C2      19.666186   19.564093   20.644483 C.3        1 MOL1        -0.1308
       9    H6      19.210872   19.130279   19.744347 H          1 MOL1         0.1025
      10    H7      19.814134   20.630521   20.428503 H          1 MOL1         0.1025
      11    C3      21.042773   18.899590   20.895480 C.3        1 MOL1        -0.1243
      12    H8      21.667713   19.031709   20.001110 H          1 MOL1         0.1025
      13    H9      20.921093   17.815294   21.022566 H          1 MOL1         0.1025
      14    C4      21.784815   19.487025   22.117811 C.3        1 MOL1        -0.2258
      15    H10     21.919781   20.571471   22.013755 H          1 MOL1         0.1036
      16    H11     22.779677   19.034157   22.218452 H          1 MOL1         0.1036
      17    H12     21.239280   19.297766   23.050829 H          1 MOL1         0.1036
@<TRIPOS>BOND
    1     1     2    1
    2     1     3    1
    3     1     4    1
    4     1     5    1
    5     5     6    1
    6     5     7    1
    7     5     8    1
    8     8     9    1
    9     8    10    1
   10     8    11    1
   11    11    12    1
   12    11    13    1
   13    11    14    1
   14    14    15    1
   15    14    16    1
   16    14    17    1
@<TRIPOS>SUBSTRUCTURE
       1 MOL1            1 RESIDUE      1      MOL     
@<SCITEGIC>MOL_PROPERTY
VConf Rank
SciTegic.value.IntegerValue
719

@<SCITEGIC>MOL_PROPERTY
Conf_Id
SciTegic.value.IntegerValue
1

@<SCITEGIC>MOL_PROPERTY
Delta U+W
SciTegic.value.DoubleValue
0.685

@<SCITEGIC>MOL_PROPERTY
U+W
SciTegic.value.DoubleValue
-15.179

@<SCITEGIC>MOL_PROPERTY
Grad RMS
SciTegic.value.DoubleValue
0.000000

@<SCITEGIC>MOL_PROPERTY
U
SciTegic.value.DoubleValue
45.697

@<SCITEGIC>MOL_PROPERTY
W
SciTegic.value.DoubleValue
-60.876

@<SCITEGIC>MOL_PROPERTY
W(PB)
SciTegic.value.DoubleValue
-62.586

@<SCITEGIC>MOL_PROPERTY
W(SA)
SciTegic.value.DoubleValue
1.710

@<SCITEGIC>MOL_PROPERTY
Valence
SciTegic.value.DoubleValue
1.263

@<SCITEGIC>MOL_PROPERTY
Coulomb
SciTegic.value.DoubleValue
44.179

@<SCITEGIC>MOL_PROPERTY
VdW
SciTegic.value.DoubleValue
0.255

@<SCITEGIC>MOL_PROPERTY
VdW6
SciTegic.value.DoubleValue
-3.552

@<SCITEGIC>MOL_PROPERTY
VdW12
SciTegic.value.DoubleValue
3.807

@<SCITEGIC>MOL_PROPERTY
Bond
SciTegic.value.DoubleValue
0.125

@<SCITEGIC>MOL_PROPERTY
Angle
SciTegic.value.DoubleValue
0.616

@<SCITEGIC>MOL_PROPERTY
Pdih
SciTegic.value.DoubleValue
0.521

@<SCITEGIC>MOL_PROPERTY
Idih
SciTegic.value.DoubleValue
0.000

@<SCITEGIC>MOL_PROPERTY
Tether
SciTegic.value.DoubleValue
0.000

@<TRIPOS>MOLECULE
guest-1_confgen4.mol2 : confsearch ligand conformer 720
          17          16           1
SMALL
USER_CHARGES
 
@<TRIPOS>ATOM
       1    N1      21.552877   20.093256   21.190897 N.4        1 MOL1        -0.5891
       2    H1      21.875601   19.933491   20.231886 H          1 MOL1         0.3726
       3    H2      21.851503   19.288289   21.748839 H          1 MOL1         0.3726
       4    H3      22.063459   20.908568   21.544790 H          1 MOL1         0.3726
       5    C1      20.051399   20.296129   21.256189 C.3        1 MOL1         0.0314
       6    H4      19.810320   21.188741   20.672525 H          1 MOL1         0.0999
       7    H5      19.779963   20.489793   22.297161 H          1 MOL1         0.0999
       8    C2      19.237515   19.100220   20.720172 C.3        1 MOL1        -0.1308
       9    H6      18.171186   19.361101   20.746356 H          1 MOL1         0.1025
      10    H7      19.486925   18.939431   19.662963 H          1 MOL1         0.1025
      11    C3      19.459261   17.784155   21.506530 C.3        1 MOL1        -0.1243
      12    H8      20.504702   17.460117   21.413222 H          1 MOL1         0.1025
      13    H9      18.853781   16.990752   21.046303 H          1 MOL1         0.1025
      14    C4      19.081785   17.900863   23.001084 C.3        1 MOL1        -0.2258
      15    H10     19.192094   16.930845   23.502945 H          1 MOL1         0.1036
      16    H11     18.039167   18.222878   23.120757 H          1 MOL1         0.1036
      17    H12     19.724449   18.619413   23.525123 H          1 MOL1         0.1036
@<TRIPOS>BOND
    1     1     2    1
    2     1     3    1
    3     1     4    1
    4     1     5    1
    5     5     6    1
    6     5     7    1
    7     5     8    1
    8     8     9    1
    9     8    10    1
   10     8    11    1
   11    11    12    1
   12    11    13    1
   13    11    14    1
   14    14    15    1
   15    14    16    1
   16    14    17    1
@<TRIPOS>SUBSTRUCTURE
       1 MOL1            1 RESIDUE      1      MOL     
@<SCITEGIC>MOL_PROPERTY
VConf Rank
SciTegic.value.IntegerValue
720

@<SCITEGIC>MOL_PROPERTY
Conf_Id
SciTegic.value.IntegerValue
43

@<SCITEGIC>MOL_PROPERTY
Delta U+W
SciTegic.value.DoubleValue
0.642

@<SCITEGIC>MOL_PROPERTY
U+W
SciTegic.value.DoubleValue
-15.222

@<SCITEGIC>MOL_PROPERTY
Grad RMS
SciTegic.value.DoubleValue
0.000000

@<SCITEGIC>MOL_PROPERTY
U
SciTegic.value.DoubleValue
45.697

@<SCITEGIC>MOL_PROPERTY
W
SciTegic.value.DoubleValue
-60.919

@<SCITEGIC>MOL_PROPERTY
W(PB)
SciTegic.value.DoubleValue
-62.631

@<SCITEGIC>MOL_PROPERTY
W(SA)
SciTegic.value.DoubleValue
1.712

@<SCITEGIC>MOL_PROPERTY
Valence
SciTegic.value.DoubleValue
1.262

@<SCITEGIC>MOL_PROPERTY
Coulomb
SciTegic.value.DoubleValue
44.179

@<SCITEGIC>MOL_PROPERTY
VdW
SciTegic.value.DoubleValue
0.255

@<SCITEGIC>MOL_PROPERTY
VdW6
SciTegic.value.DoubleValue
-3.552

@<SCITEGIC>MOL_PROPERTY
VdW12
SciTegic.value.DoubleValue
3.807

@<SCITEGIC>MOL_PROPERTY
Bond
SciTegic.value.DoubleValue
0.125

@<SCITEGIC>MOL_PROPERTY
Angle
SciTegic.value.DoubleValue
0.616

@<SCITEGIC>MOL_PROPERTY
Pdih
SciTegic.value.DoubleValue
0.521

@<SCITEGIC>MOL_PROPERTY
Idih
SciTegic.value.DoubleValue
0.000

@<SCITEGIC>MOL_PROPERTY
Tether
SciTegic.value.DoubleValue
0.000

@<TRIPOS>MOLECULE
guest-1_confgen4.mol2 : confsearch ligand conformer 721
          17          16           1
SMALL
USER_CHARGES
 
@<TRIPOS>ATOM
       1    N1      22.437592   19.230142   22.237203 N.4        1 MOL1        -0.5891
       2    H1      22.454775   20.234539   22.438665 H          1 MOL1         0.3726
       3    H2      22.823934   19.105476   21.296514 H          1 MOL1         0.3726
       4    H3      23.093515   18.786214   22.888050 H          1 MOL1         0.3726
       5    C1      21.042645   18.650087   22.359745 C.3        1 MOL1         0.0314
       6    H4      20.708083   18.790460   23.391194 H          1 MOL1         0.0999
       7    H5      21.105053   17.576335   22.163055 H          1 MOL1         0.0999
       8    C2      20.030582   19.294831   21.395227 C.3        1 MOL1        -0.1308
       9    H6      19.982058   20.375342   21.585310 H          1 MOL1         0.1025
      10    H7      20.377582   19.165267   20.361402 H          1 MOL1         0.1025
      11    C3      18.624181   18.676097   21.552470 C.3        1 MOL1        -0.1243
      12    H8      18.277676   18.802540   22.587976 H          1 MOL1         0.1025
      13    H9      18.672695   17.593965   21.365493 H          1 MOL1         0.1025
      14    C4      17.603492   19.318011   20.588055 C.3        1 MOL1        -0.2258
      15    H10     16.611664   18.865114   20.715367 H          1 MOL1         0.1036
      16    H11     17.905482   19.177547   19.541977 H          1 MOL1         0.1036
      17    H12     17.507397   20.395679   20.774079 H          1 MOL1         0.1036
@<TRIPOS>BOND
    1     1     2    1
    2     1     3    1
    3     1     4    1
    4     1     5    1
    5     5     6    1
    6     5     7    1
    7     5     8    1
    8     8     9    1
    9     8    10    1
   10     8    11    1
   11    11    12    1
   12    11    13    1
   13    11    14    1
   14    14    15    1
   15    14    16    1
   16    14    17    1
@<TRIPOS>SUBSTRUCTURE
       1 MOL1            1 RESIDUE      1      MOL     
@<SCITEGIC>MOL_PROPERTY
VConf Rank
SciTegic.value.IntegerValue
721

@<SCITEGIC>MOL_PROPERTY
Conf_Id
SciTegic.value.IntegerValue
7

@<SCITEGIC>MOL_PROPERTY
Delta U+W
SciTegic.value.DoubleValue
0.000

@<SCITEGIC>MOL_PROPERTY
U+W
SciTegic.value.DoubleValue
-15.865

@<SCITEGIC>MOL_PROPERTY
Grad RMS
SciTegic.value.DoubleValue
0.000000

@<SCITEGIC>MOL_PROPERTY
U
SciTegic.value.DoubleValue
44.664

@<SCITEGIC>MOL_PROPERTY
W
SciTegic.value.DoubleValue
-60.529

@<SCITEGIC>MOL_PROPERTY
W(PB)
SciTegic.value.DoubleValue
-62.309

@<SCITEGIC>MOL_PROPERTY
W(SA)
SciTegic.value.DoubleValue
1.780

@<SCITEGIC>MOL_PROPERTY
Valence
SciTegic.value.DoubleValue
0.872

@<SCITEGIC>MOL_PROPERTY
Coulomb
SciTegic.value.DoubleValue
43.648

@<SCITEGIC>MOL_PROPERTY
VdW
SciTegic.value.DoubleValue
0.144

@<SCITEGIC>MOL_PROPERTY
VdW6
SciTegic.value.DoubleValue
-2.370

@<SCITEGIC>MOL_PROPERTY
VdW12
SciTegic.value.DoubleValue
2.515

@<SCITEGIC>MOL_PROPERTY
Bond
SciTegic.value.DoubleValue
0.080

@<SCITEGIC>MOL_PROPERTY
Angle
SciTegic.value.DoubleValue
0.376

@<SCITEGIC>MOL_PROPERTY
Pdih
SciTegic.value.DoubleValue
0.416

@<SCITEGIC>MOL_PROPERTY
Idih
SciTegic.value.DoubleValue
0.000

@<SCITEGIC>MOL_PROPERTY
Tether
SciTegic.value.DoubleValue
0.000

@<TRIPOS>MOLECULE
guest-1_confgen4.mol2 : confsearch ligand conformer 722
          17          16           1
SMALL
USER_CHARGES
 
@<TRIPOS>ATOM
       1    N1      18.701294   18.402231   19.660682 N.4        1 MOL1        -0.5891
       2    H1      17.716573   18.657477   19.782432 H          1 MOL1         0.3726
       3    H2      18.769501   17.390084   19.804044 H          1 MOL1         0.3726
       4    H3      18.933732   18.578731   18.678000 H          1 MOL1         0.3726
       5    C1      19.607670   19.171110   20.601247 C.3        1 MOL1         0.0314
       6    H4      19.506745   20.235577   20.372924 H          1 MOL1         0.0999
       7    H5      20.638357   18.872055   20.393671 H          1 MOL1         0.0999
       8    C2      19.285420   18.928071   22.088206 C.3        1 MOL1        -0.1308
       9    H6      18.236808   19.193727   22.277194 H          1 MOL1         0.1025
      10    H7      19.385162   17.858707   22.317116 H          1 MOL1         0.1025
      11    C3      20.191076   19.748092   23.036551 C.3        1 MOL1        -0.1243
      12    H8      19.857858   19.591654   24.072155 H          1 MOL1         0.1025
      13    H9      20.067364   20.820784   22.831106 H          1 MOL1         0.1025
      14    C4      21.685134   19.366987   22.924716 C.3        1 MOL1        -0.2258
      15    H10     21.835682   18.297231   23.119861 H          1 MOL1         0.1036
      16    H11     22.281209   19.927774   23.656303 H          1 MOL1         0.1036
      17    H12     22.085795   19.593481   21.928592 H          1 MOL1         0.1036
@<TRIPOS>BOND
    1     1     2    1
    2     1     3    1
    3     1     4    1
    4     1     5    1
    5     5     6    1
    6     5     7    1
    7     5     8    1
    8     8     9    1
    9     8    10    1
   10     8    11    1
   11    11    12    1
   12    11    13    1
   13    11    14    1
   14    14    15    1
   15    14    16    1
   16    14    17    1
@<TRIPOS>SUBSTRUCTURE
       1 MOL1            1 RESIDUE      1      MOL     
@<SCITEGIC>MOL_PROPERTY
VConf Rank
SciTegic.value.IntegerValue
722

@<SCITEGIC>MOL_PROPERTY
Conf_Id
SciTegic.value.IntegerValue
36

@<SCITEGIC>MOL_PROPERTY
Delta U+W
SciTegic.value.DoubleValue
0.275

@<SCITEGIC>MOL_PROPERTY
U+W
SciTegic.value.DoubleValue
-15.590

@<SCITEGIC>MOL_PROPERTY
Grad RMS
SciTegic.value.DoubleValue
0.000000

@<SCITEGIC>MOL_PROPERTY
U
SciTegic.value.DoubleValue
45.174

@<SCITEGIC>MOL_PROPERTY
W
SciTegic.value.DoubleValue
-60.765

@<SCITEGIC>MOL_PROPERTY
W(PB)
SciTegic.value.DoubleValue
-62.518

@<SCITEGIC>MOL_PROPERTY
W(SA)
SciTegic.value.DoubleValue
1.754

@<SCITEGIC>MOL_PROPERTY
Valence
SciTegic.value.DoubleValue
1.161

@<SCITEGIC>MOL_PROPERTY
Coulomb
SciTegic.value.DoubleValue
43.789

@<SCITEGIC>MOL_PROPERTY
VdW
SciTegic.value.DoubleValue
0.224

@<SCITEGIC>MOL_PROPERTY
VdW6
SciTegic.value.DoubleValue
-2.897

@<SCITEGIC>MOL_PROPERTY
VdW12
SciTegic.value.DoubleValue
3.121

@<SCITEGIC>MOL_PROPERTY
Bond
SciTegic.value.DoubleValue
0.100

@<SCITEGIC>MOL_PROPERTY
Angle
SciTegic.value.DoubleValue
0.500

@<SCITEGIC>MOL_PROPERTY
Pdih
SciTegic.value.DoubleValue
0.561

@<SCITEGIC>MOL_PROPERTY
Idih
SciTegic.value.DoubleValue
0.000

@<SCITEGIC>MOL_PROPERTY
Tether
SciTegic.value.DoubleValue
0.000

@<TRIPOS>MOLECULE
guest-1_confgen4.mol2 : confsearch ligand conformer 723
          17          16           1
SMALL
USER_CHARGES
 
@<TRIPOS>ATOM
       1    N1      21.365080   17.795838   21.594271 N.4        1 MOL1        -0.5891
       2    H1      21.403078   18.425702   20.788869 H          1 MOL1         0.3726
       3    H2      20.987060   16.903726   21.261529 H          1 MOL1         0.3726
       4    H3      22.331795   17.618823   21.885734 H          1 MOL1         0.3726
       5    C1      20.532835   18.374910   22.722133 C.3        1 MOL1         0.0314
       6    H4      21.018993   19.285971   23.081188 H          1 MOL1         0.0999
       7    H5      20.543007   17.643734   23.535038 H          1 MOL1         0.0999
       8    C2      19.069457   18.680089   22.338722 C.3        1 MOL1        -0.1308
       9    H6      18.653467   17.849349   21.753441 H          1 MOL1         0.1025
      10    H7      18.481723   18.719506   23.265470 H          1 MOL1         0.1025
      11    C3      18.867823   20.021800   21.589149 C.3        1 MOL1        -0.1243
      12    H8      19.230568   20.851386   22.212226 H          1 MOL1         0.1025
      13    H9      17.788942   20.187619   21.460661 H          1 MOL1         0.1025
      14    C4      19.544383   20.086231   20.200986 C.3        1 MOL1        -0.2258
      15    H10     20.636093   20.135097   20.287343 H          1 MOL1         0.1036
      16    H11     19.223160   20.987409   19.662608 H          1 MOL1         0.1036
      17    H12     19.275735   19.217527   19.585896 H          1 MOL1         0.1036
@<TRIPOS>BOND
    1     1     2    1
    2     1     3    1
    3     1     4    1
    4     1     5    1
    5     5     6    1
    6     5     7    1
    7     5     8    1
    8     8     9    1
    9     8    10    1
   10     8    11    1
   11    11    12    1
   12    11    13    1
   13    11    14    1
   14    14    15    1
   15    14    16    1
   16    14    17    1
@<TRIPOS>SUBSTRUCTURE
       1 MOL1            1 RESIDUE      1      MOL     
@<SCITEGIC>MOL_PROPERTY
VConf Rank
SciTegic.value.IntegerValue
723

@<SCITEGIC>MOL_PROPERTY
Conf_Id
SciTegic.value.IntegerValue
19

@<SCITEGIC>MOL_PROPERTY
Delta U+W
SciTegic.value.DoubleValue
2.662

@<SCITEGIC>MOL_PROPERTY
U+W
SciTegic.value.DoubleValue
-13.203

@<SCITEGIC>MOL_PROPERTY
Grad RMS
SciTegic.value.DoubleValue
0.000000

@<SCITEGIC>MOL_PROPERTY
U
SciTegic.value.DoubleValue
47.423

@<SCITEGIC>MOL_PROPERTY
W
SciTegic.value.DoubleValue
-60.626

@<SCITEGIC>MOL_PROPERTY
W(PB)
SciTegic.value.DoubleValue
-62.328

@<SCITEGIC>MOL_PROPERTY
W(SA)
SciTegic.value.DoubleValue
1.702

@<SCITEGIC>MOL_PROPERTY
Valence
SciTegic.value.DoubleValue
2.414

@<SCITEGIC>MOL_PROPERTY
Coulomb
SciTegic.value.DoubleValue
44.831

@<SCITEGIC>MOL_PROPERTY
VdW
SciTegic.value.DoubleValue
0.178

@<SCITEGIC>MOL_PROPERTY
VdW6
SciTegic.value.DoubleValue
-3.743

@<SCITEGIC>MOL_PROPERTY
VdW12
SciTegic.value.DoubleValue
3.921

@<SCITEGIC>MOL_PROPERTY
Bond
SciTegic.value.DoubleValue
0.138

@<SCITEGIC>MOL_PROPERTY
Angle
SciTegic.value.DoubleValue
0.941

@<SCITEGIC>MOL_PROPERTY
Pdih
SciTegic.value.DoubleValue
1.335

@<SCITEGIC>MOL_PROPERTY
Idih
SciTegic.value.DoubleValue
0.000

@<SCITEGIC>MOL_PROPERTY
Tether
SciTegic.value.DoubleValue
0.000

@<TRIPOS>MOLECULE
guest-1_confgen4.mol2 : confsearch ligand conformer 724
          17          16           1
SMALL
USER_CHARGES
 
@<TRIPOS>ATOM
       1    N1      21.640498   18.547497   21.294863 N.4        1 MOL1        -0.5891
       2    H1      22.267489   17.829563   20.917668 H          1 MOL1         0.3726
       3    H2      22.222759   19.199482   21.829061 H          1 MOL1         0.3726
       4    H3      21.261288   19.065881   20.498420 H          1 MOL1         0.3726
       5    C1      20.541196   17.944656   22.148185 C.3        1 MOL1         0.0314
       6    H4      21.029137   17.414768   22.970784 H          1 MOL1         0.0999
       7    H5      19.998064   17.209760   21.547988 H          1 MOL1         0.0999
       8    C2      19.552542   18.976415   22.730979 C.3        1 MOL1        -0.1308
       9    H6      19.062180   18.516878   23.599436 H          1 MOL1         0.1025
      10    H7      20.101274   19.844581   23.119449 H          1 MOL1         0.1025
      11    C3      18.446509   19.434222   21.746191 C.3        1 MOL1        -0.1243
      12    H8      17.743541   20.079816   22.291201 H          1 MOL1         0.1025
      13    H9      17.864039   18.563422   21.413842 H          1 MOL1         0.1025
      14    C4      18.968421   20.205848   20.512870 C.3        1 MOL1        -0.2258
      15    H10     19.633121   21.027861   20.808880 H          1 MOL1         0.1036
      16    H11     18.130010   20.640763   19.953342 H          1 MOL1         0.1036
      17    H12     19.507143   19.545433   19.823443 H          1 MOL1         0.1036
@<TRIPOS>BOND
    1     1     2    1
    2     1     3    1
    3     1     4    1
    4     1     5    1
    5     5     6    1
    6     5     7    1
    7     5     8    1
    8     8     9    1
    9     8    10    1
   10     8    11    1
   11    11    12    1
   12    11    13    1
   13    11    14    1
   14    14    15    1
   15    14    16    1
   16    14    17    1
@<TRIPOS>SUBSTRUCTURE
       1 MOL1            1 RESIDUE      1      MOL     
@<SCITEGIC>MOL_PROPERTY
VConf Rank
SciTegic.value.IntegerValue
724

@<SCITEGIC>MOL_PROPERTY
Conf_Id
SciTegic.value.IntegerValue
44

@<SCITEGIC>MOL_PROPERTY
Delta U+W
SciTegic.value.DoubleValue
2.712

@<SCITEGIC>MOL_PROPERTY
U+W
SciTegic.value.DoubleValue
-13.153

@<SCITEGIC>MOL_PROPERTY
Grad RMS
SciTegic.value.DoubleValue
0.000000

@<SCITEGIC>MOL_PROPERTY
U
SciTegic.value.DoubleValue
47.423

@<SCITEGIC>MOL_PROPERTY
W
SciTegic.value.DoubleValue
-60.576

@<SCITEGIC>MOL_PROPERTY
W(PB)
SciTegic.value.DoubleValue
-62.262

@<SCITEGIC>MOL_PROPERTY
W(SA)
SciTegic.value.DoubleValue
1.687

@<SCITEGIC>MOL_PROPERTY
Valence
SciTegic.value.DoubleValue
2.414

@<SCITEGIC>MOL_PROPERTY
Coulomb
SciTegic.value.DoubleValue
44.831

@<SCITEGIC>MOL_PROPERTY
VdW
SciTegic.value.DoubleValue
0.178

@<SCITEGIC>MOL_PROPERTY
VdW6
SciTegic.value.DoubleValue
-3.743

@<SCITEGIC>MOL_PROPERTY
VdW12
SciTegic.value.DoubleValue
3.922

@<SCITEGIC>MOL_PROPERTY
Bond
SciTegic.value.DoubleValue
0.138

@<SCITEGIC>MOL_PROPERTY
Angle
SciTegic.value.DoubleValue
0.941

@<SCITEGIC>MOL_PROPERTY
Pdih
SciTegic.value.DoubleValue
1.335

@<SCITEGIC>MOL_PROPERTY
Idih
SciTegic.value.DoubleValue
0.000

@<SCITEGIC>MOL_PROPERTY
Tether
SciTegic.value.DoubleValue
0.000

@<TRIPOS>MOLECULE
guest-1_confgen4.mol2 : confsearch ligand conformer 725
          17          16           1
SMALL
USER_CHARGES
 
@<TRIPOS>ATOM
       1    N1      19.831278   20.150528   19.955342 N.4        1 MOL1        -0.5891
       2    H1      18.866853   19.968169   20.247021 H          1 MOL1         0.3726
       3    H2      20.003941   19.592176   19.114028 H          1 MOL1         0.3726
       4    H3      19.877654   21.135044   19.673836 H          1 MOL1         0.3726
       5    C1      20.821686   19.832177   21.058792 C.3        1 MOL1         0.0314
       6    H4      20.600423   20.480103   21.910871 H          1 MOL1         0.0999
       7    H5      21.820554   20.084760   20.692727 H          1 MOL1         0.0999
       8    C2      20.800424   18.356481   21.508003 C.3        1 MOL1        -0.1308
       9    H6      21.063576   17.716412   20.655470 H          1 MOL1         0.1025
      10    H7      21.588522   18.206175   22.257745 H          1 MOL1         0.1025
      11    C3      19.443323   17.896562   22.096481 C.3        1 MOL1        -0.1243
      12    H8      19.519026   16.835591   22.373093 H          1 MOL1         0.1025
      13    H9      18.659826   17.954317   21.328724 H          1 MOL1         0.1025
      14    C4      19.015375   18.710212   23.339313 C.3        1 MOL1        -0.2258
      15    H10     19.783092   18.666993   24.122773 H          1 MOL1         0.1036
      16    H11     18.084527   18.308832   23.760483 H          1 MOL1         0.1036
      17    H12     18.838563   19.764229   23.090849 H          1 MOL1         0.1036
@<TRIPOS>BOND
    1     1     2    1
    2     1     3    1
    3     1     4    1
    4     1     5    1
    5     5     6    1
    6     5     7    1
    7     5     8    1
    8     8     9    1
    9     8    10    1
   10     8    11    1
   11    11    12    1
   12    11    13    1
   13    11    14    1
   14    14    15    1
   15    14    16    1
   16    14    17    1
@<TRIPOS>SUBSTRUCTURE
       1 MOL1            1 RESIDUE      1      MOL     
@<SCITEGIC>MOL_PROPERTY
VConf Rank
SciTegic.value.IntegerValue
725

@<SCITEGIC>MOL_PROPERTY
Conf_Id
SciTegic.value.IntegerValue
1

@<SCITEGIC>MOL_PROPERTY
Delta U+W
SciTegic.value.DoubleValue
0.685

@<SCITEGIC>MOL_PROPERTY
U+W
SciTegic.value.DoubleValue
-15.179

@<SCITEGIC>MOL_PROPERTY
Grad RMS
SciTegic.value.DoubleValue
0.000000

@<SCITEGIC>MOL_PROPERTY
U
SciTegic.value.DoubleValue
45.697

@<SCITEGIC>MOL_PROPERTY
W
SciTegic.value.DoubleValue
-60.876

@<SCITEGIC>MOL_PROPERTY
W(PB)
SciTegic.value.DoubleValue
-62.586

@<SCITEGIC>MOL_PROPERTY
W(SA)
SciTegic.value.DoubleValue
1.710

@<SCITEGIC>MOL_PROPERTY
Valence
SciTegic.value.DoubleValue
1.263

@<SCITEGIC>MOL_PROPERTY
Coulomb
SciTegic.value.DoubleValue
44.179

@<SCITEGIC>MOL_PROPERTY
VdW
SciTegic.value.DoubleValue
0.255

@<SCITEGIC>MOL_PROPERTY
VdW6
SciTegic.value.DoubleValue
-3.552

@<SCITEGIC>MOL_PROPERTY
VdW12
SciTegic.value.DoubleValue
3.807

@<SCITEGIC>MOL_PROPERTY
Bond
SciTegic.value.DoubleValue
0.125

@<SCITEGIC>MOL_PROPERTY
Angle
SciTegic.value.DoubleValue
0.616

@<SCITEGIC>MOL_PROPERTY
Pdih
SciTegic.value.DoubleValue
0.521

@<SCITEGIC>MOL_PROPERTY
Idih
SciTegic.value.DoubleValue
0.000

@<SCITEGIC>MOL_PROPERTY
Tether
SciTegic.value.DoubleValue
0.000

@<TRIPOS>MOLECULE
guest-1_confgen4.mol2 : confsearch ligand conformer 726
          17          16           1
SMALL
USER_CHARGES
 
@<TRIPOS>ATOM
       1    N1      21.903599   19.199173   21.532510 N.4        1 MOL1        -0.5891
       2    H1      22.338878   18.866851   22.398231 H          1 MOL1         0.3726
       3    H2      21.527803   20.132696   21.721616 H          1 MOL1         0.3726
       4    H3      22.655978   19.312977   20.845748 H          1 MOL1         0.3726
       5    C1      20.828522   18.250093   21.039241 C.3        1 MOL1         0.0314
       6    H4      21.305427   17.290238   20.822961 H          1 MOL1         0.0999
       7    H5      20.428795   18.647255   20.102605 H          1 MOL1         0.0999
       8    C2      19.679135   18.034100   22.045312 C.3        1 MOL1        -0.1308
       9    H6      18.986612   17.288501   21.632639 H          1 MOL1         0.1025
      10    H7      20.084685   17.597122   22.967444 H          1 MOL1         0.1025
      11    C3      18.892948   19.323537   22.390015 C.3        1 MOL1        -0.1243
      12    H8      19.553036   20.046360   22.888478 H          1 MOL1         0.1025
      13    H9      18.109149   19.075634   23.119472 H          1 MOL1         0.1025
      14    C4      18.238470   19.982303   21.154101 C.3        1 MOL1        -0.2258
      15    H10     17.639744   20.852343   21.453308 H          1 MOL1         0.1036
      16    H11     17.571944   19.278766   20.638497 H          1 MOL1         0.1036
      17    H12     18.991262   20.330090   20.435563 H          1 MOL1         0.1036
@<TRIPOS>BOND
    1     1     2    1
    2     1     3    1
    3     1     4    1
    4     1     5    1
    5     5     6    1
    6     5     7    1
    7     5     8    1
    8     8     9    1
    9     8    10    1
   10     8    11    1
   11    11    12    1
   12    11    13    1
   13    11    14    1
   14    14    15    1
   15    14    16    1
   16    14    17    1
@<TRIPOS>SUBSTRUCTURE
       1 MOL1            1 RESIDUE      1      MOL     
@<SCITEGIC>MOL_PROPERTY
VConf Rank
SciTegic.value.IntegerValue
726

@<SCITEGIC>MOL_PROPERTY
Conf_Id
SciTegic.value.IntegerValue
43

@<SCITEGIC>MOL_PROPERTY
Delta U+W
SciTegic.value.DoubleValue
0.642

@<SCITEGIC>MOL_PROPERTY
U+W
SciTegic.value.DoubleValue
-15.222

@<SCITEGIC>MOL_PROPERTY
Grad RMS
SciTegic.value.DoubleValue
0.000000

@<SCITEGIC>MOL_PROPERTY
U
SciTegic.value.DoubleValue
45.697

@<SCITEGIC>MOL_PROPERTY
W
SciTegic.value.DoubleValue
-60.919

@<SCITEGIC>MOL_PROPERTY
W(PB)
SciTegic.value.DoubleValue
-62.631

@<SCITEGIC>MOL_PROPERTY
W(SA)
SciTegic.value.DoubleValue
1.712

@<SCITEGIC>MOL_PROPERTY
Valence
SciTegic.value.DoubleValue
1.262

@<SCITEGIC>MOL_PROPERTY
Coulomb
SciTegic.value.DoubleValue
44.179

@<SCITEGIC>MOL_PROPERTY
VdW
SciTegic.value.DoubleValue
0.255

@<SCITEGIC>MOL_PROPERTY
VdW6
SciTegic.value.DoubleValue
-3.552

@<SCITEGIC>MOL_PROPERTY
VdW12
SciTegic.value.DoubleValue
3.807

@<SCITEGIC>MOL_PROPERTY
Bond
SciTegic.value.DoubleValue
0.125

@<SCITEGIC>MOL_PROPERTY
Angle
SciTegic.value.DoubleValue
0.616

@<SCITEGIC>MOL_PROPERTY
Pdih
SciTegic.value.DoubleValue
0.521

@<SCITEGIC>MOL_PROPERTY
Idih
SciTegic.value.DoubleValue
0.000

@<SCITEGIC>MOL_PROPERTY
Tether
SciTegic.value.DoubleValue
0.000

@<TRIPOS>MOLECULE
guest-1_confgen4.mol2 : confsearch ligand conformer 727
          17          16           1
SMALL
USER_CHARGES
 
@<TRIPOS>ATOM
       1    N1      21.079688   21.368661   21.571232 N.4        1 MOL1        -0.5891
       2    H1      20.558800   21.780274   22.351582 H          1 MOL1         0.3726
       3    H2      20.649918   21.713698   20.707551 H          1 MOL1         0.3726
       4    H3      22.026467   21.760039   21.607859 H          1 MOL1         0.3726
       5    C1      21.093103   19.854288   21.633301 C.3        1 MOL1         0.0314
       6    H4      21.590798   19.558843   22.560951 H          1 MOL1         0.0999
       7    H5      21.688821   19.487249   20.793106 H          1 MOL1         0.0999
       8    C2      19.685717   19.232411   21.580446 C.3        1 MOL1        -0.1308
       9    H6      19.085564   19.615162   22.416694 H          1 MOL1         0.1025
      10    H7      19.183311   19.543689   20.654874 H          1 MOL1         0.1025
      11    C3      19.744459   17.690419   21.646263 C.3        1 MOL1        -0.1243
      12    H8      20.250223   17.378260   22.570971 H          1 MOL1         0.1025
      13    H9      20.347783   17.306865   20.811270 H          1 MOL1         0.1025
      14    C4      18.336212   17.059512   21.593791 C.3        1 MOL1        -0.2258
      15    H10     18.399689   15.964653   21.641769 H          1 MOL1         0.1036
      16    H11     17.818099   17.325805   20.663278 H          1 MOL1         0.1036
      17    H12     17.719754   17.397818   22.436843 H          1 MOL1         0.1036
@<TRIPOS>BOND
    1     1     2    1
    2     1     3    1
    3     1     4    1
    4     1     5    1
    5     5     6    1
    6     5     7    1
    7     5     8    1
    8     8     9    1
    9     8    10    1
   10     8    11    1
   11    11    12    1
   12    11    13    1
   13    11    14    1
   14    14    15    1
   15    14    16    1
   16    14    17    1
@<TRIPOS>SUBSTRUCTURE
       1 MOL1            1 RESIDUE      1      MOL     
@<SCITEGIC>MOL_PROPERTY
VConf Rank
SciTegic.value.IntegerValue
727

@<SCITEGIC>MOL_PROPERTY
Conf_Id
SciTegic.value.IntegerValue
7

@<SCITEGIC>MOL_PROPERTY
Delta U+W
SciTegic.value.DoubleValue
0.000

@<SCITEGIC>MOL_PROPERTY
U+W
SciTegic.value.DoubleValue
-15.865

@<SCITEGIC>MOL_PROPERTY
Grad RMS
SciTegic.value.DoubleValue
0.000000

@<SCITEGIC>MOL_PROPERTY
U
SciTegic.value.DoubleValue
44.664

@<SCITEGIC>MOL_PROPERTY
W
SciTegic.value.DoubleValue
-60.529

@<SCITEGIC>MOL_PROPERTY
W(PB)
SciTegic.value.DoubleValue
-62.309

@<SCITEGIC>MOL_PROPERTY
W(SA)
SciTegic.value.DoubleValue
1.780

@<SCITEGIC>MOL_PROPERTY
Valence
SciTegic.value.DoubleValue
0.872

@<SCITEGIC>MOL_PROPERTY
Coulomb
SciTegic.value.DoubleValue
43.648

@<SCITEGIC>MOL_PROPERTY
VdW
SciTegic.value.DoubleValue
0.144

@<SCITEGIC>MOL_PROPERTY
VdW6
SciTegic.value.DoubleValue
-2.370

@<SCITEGIC>MOL_PROPERTY
VdW12
SciTegic.value.DoubleValue
2.515

@<SCITEGIC>MOL_PROPERTY
Bond
SciTegic.value.DoubleValue
0.080

@<SCITEGIC>MOL_PROPERTY
Angle
SciTegic.value.DoubleValue
0.376

@<SCITEGIC>MOL_PROPERTY
Pdih
SciTegic.value.DoubleValue
0.416

@<SCITEGIC>MOL_PROPERTY
Idih
SciTegic.value.DoubleValue
0.000

@<SCITEGIC>MOL_PROPERTY
Tether
SciTegic.value.DoubleValue
0.000

@<TRIPOS>MOLECULE
guest-1_confgen4.mol2 : confsearch ligand conformer 728
          17          16           1
SMALL
USER_CHARGES
 
@<TRIPOS>ATOM
       1    N1      21.292656   20.977201   20.965799 N.4        1 MOL1        -0.5891
       2    H1      21.264199   21.678856   21.711800 H          1 MOL1         0.3726
       3    H2      20.699169   21.322524   20.205422 H          1 MOL1         0.3726
       4    H3      22.253503   20.963174   20.608838 H          1 MOL1         0.3726
       5    C1      20.852578   19.611360   21.453820 C.3        1 MOL1         0.0314
       6    H4      21.544228   19.293992   22.238872 H          1 MOL1         0.0999
       7    H5      20.938512   18.912314   20.617885 H          1 MOL1         0.0999
       8    C2      19.410973   19.596776   21.997436 C.3        1 MOL1        -0.1308
       9    H6      19.325296   20.330780   22.809702 H          1 MOL1         0.1025
      10    H7      18.716486   19.917144   21.209438 H          1 MOL1         0.1025
      11    C3      18.987692   18.207129   22.528209 C.3        1 MOL1        -0.1243
      12    H8      17.985310   18.284797   22.972258 H          1 MOL1         0.1025
      13    H9      19.662002   17.899621   23.339952 H          1 MOL1         0.1025
      14    C4      18.969211   17.120370   21.428859 C.3        1 MOL1        -0.2258
      15    H10     18.306443   17.406300   20.601751 H          1 MOL1         0.1036
      16    H11     18.605317   16.167821   21.835355 H          1 MOL1         0.1036
      17    H12     19.971805   16.943615   21.019404 H          1 MOL1         0.1036
@<TRIPOS>BOND
    1     1     2    1
    2     1     3    1
    3     1     4    1
    4     1     5    1
    5     5     6    1
    6     5     7    1
    7     5     8    1
    8     8     9    1
    9     8    10    1
   10     8    11    1
   11    11    12    1
   12    11    13    1
   13    11    14    1
   14    14    15    1
   15    14    16    1
   16    14    17    1
@<TRIPOS>SUBSTRUCTURE
       1 MOL1            1 RESIDUE      1      MOL     
@<SCITEGIC>MOL_PROPERTY
VConf Rank
SciTegic.value.IntegerValue
728

@<SCITEGIC>MOL_PROPERTY
Conf_Id
SciTegic.value.IntegerValue
36

@<SCITEGIC>MOL_PROPERTY
Delta U+W
SciTegic.value.DoubleValue
0.275

@<SCITEGIC>MOL_PROPERTY
U+W
SciTegic.value.DoubleValue
-15.590

@<SCITEGIC>MOL_PROPERTY
Grad RMS
SciTegic.value.DoubleValue
0.000000

@<SCITEGIC>MOL_PROPERTY
U
SciTegic.value.DoubleValue
45.174

@<SCITEGIC>MOL_PROPERTY
W
SciTegic.value.DoubleValue
-60.765

@<SCITEGIC>MOL_PROPERTY
W(PB)
SciTegic.value.DoubleValue
-62.518

@<SCITEGIC>MOL_PROPERTY
W(SA)
SciTegic.value.DoubleValue
1.754

@<SCITEGIC>MOL_PROPERTY
Valence
SciTegic.value.DoubleValue
1.161

@<SCITEGIC>MOL_PROPERTY
Coulomb
SciTegic.value.DoubleValue
43.789

@<SCITEGIC>MOL_PROPERTY
VdW
SciTegic.value.DoubleValue
0.224

@<SCITEGIC>MOL_PROPERTY
VdW6
SciTegic.value.DoubleValue
-2.897

@<SCITEGIC>MOL_PROPERTY
VdW12
SciTegic.value.DoubleValue
3.121

@<SCITEGIC>MOL_PROPERTY
Bond
SciTegic.value.DoubleValue
0.100

@<SCITEGIC>MOL_PROPERTY
Angle
SciTegic.value.DoubleValue
0.500

@<SCITEGIC>MOL_PROPERTY
Pdih
SciTegic.value.DoubleValue
0.561

@<SCITEGIC>MOL_PROPERTY
Idih
SciTegic.value.DoubleValue
0.000

@<SCITEGIC>MOL_PROPERTY
Tether
SciTegic.value.DoubleValue
0.000

@<TRIPOS>MOLECULE
guest-1_confgen4.mol2 : confsearch ligand conformer 729
          17          16           1
SMALL
USER_CHARGES
 
@<TRIPOS>ATOM
       1    N1      21.151722   18.996164   20.193332 N.4        1 MOL1        -0.5891
       2    H1      21.604325   18.731632   21.071977 H          1 MOL1         0.3726
       3    H2      21.378936   19.980236   20.021703 H          1 MOL1         0.3726
       4    H3      21.598755   18.453421   19.447400 H          1 MOL1         0.3726
       5    C1      19.653812   18.763567   20.240177 C.3        1 MOL1         0.0314
       6    H4      19.471416   17.691883   20.356481 H          1 MOL1         0.0999
       7    H5      19.251934   19.071406   19.271019 H          1 MOL1         0.0999
       8    C2      18.925575   19.541519   21.356454 C.3        1 MOL1        -0.1308
       9    H6      19.297311   20.573872   21.398756 H          1 MOL1         0.1025
      10    H7      17.865978   19.614196   21.077493 H          1 MOL1         0.1025
      11    C3      19.005479   18.881891   22.756886 C.3        1 MOL1        -0.1243
      12    H8      18.572604   17.872483   22.715210 H          1 MOL1         0.1025
      13    H9      18.371077   19.456217   23.446576 H          1 MOL1         0.1025
      14    C4      20.431855   18.806610   23.347367 C.3        1 MOL1        -0.2258
      15    H10     21.050986   18.077417   22.811990 H          1 MOL1         0.1036
      16    H11     20.392804   18.487147   24.396927 H          1 MOL1         0.1036
      17    H12     20.928628   19.785055   23.315513 H          1 MOL1         0.1036
@<TRIPOS>BOND
    1     1     2    1
    2     1     3    1
    3     1     4    1
    4     1     5    1
    5     5     6    1
    6     5     7    1
    7     5     8    1
    8     8     9    1
    9     8    10    1
   10     8    11    1
   11    11    12    1
   12    11    13    1
   13    11    14    1
   14    14    15    1
   15    14    16    1
   16    14    17    1
@<TRIPOS>SUBSTRUCTURE
       1 MOL1            1 RESIDUE      1      MOL     
@<SCITEGIC>MOL_PROPERTY
VConf Rank
SciTegic.value.IntegerValue
729

@<SCITEGIC>MOL_PROPERTY
Conf_Id
SciTegic.value.IntegerValue
19

@<SCITEGIC>MOL_PROPERTY
Delta U+W
SciTegic.value.DoubleValue
2.662

@<SCITEGIC>MOL_PROPERTY
U+W
SciTegic.value.DoubleValue
-13.203

@<SCITEGIC>MOL_PROPERTY
Grad RMS
SciTegic.value.DoubleValue
0.000000

@<SCITEGIC>MOL_PROPERTY
U
SciTegic.value.DoubleValue
47.423

@<SCITEGIC>MOL_PROPERTY
W
SciTegic.value.DoubleValue
-60.626

@<SCITEGIC>MOL_PROPERTY
W(PB)
SciTegic.value.DoubleValue
-62.328

@<SCITEGIC>MOL_PROPERTY
W(SA)
SciTegic.value.DoubleValue
1.702

@<SCITEGIC>MOL_PROPERTY
Valence
SciTegic.value.DoubleValue
2.414

@<SCITEGIC>MOL_PROPERTY
Coulomb
SciTegic.value.DoubleValue
44.831

@<SCITEGIC>MOL_PROPERTY
VdW
SciTegic.value.DoubleValue
0.178

@<SCITEGIC>MOL_PROPERTY
VdW6
SciTegic.value.DoubleValue
-3.743

@<SCITEGIC>MOL_PROPERTY
VdW12
SciTegic.value.DoubleValue
3.921

@<SCITEGIC>MOL_PROPERTY
Bond
SciTegic.value.DoubleValue
0.138

@<SCITEGIC>MOL_PROPERTY
Angle
SciTegic.value.DoubleValue
0.941

@<SCITEGIC>MOL_PROPERTY
Pdih
SciTegic.value.DoubleValue
1.335

@<SCITEGIC>MOL_PROPERTY
Idih
SciTegic.value.DoubleValue
0.000

@<SCITEGIC>MOL_PROPERTY
Tether
SciTegic.value.DoubleValue
0.000

@<TRIPOS>MOLECULE
guest-1_confgen4.mol2 : confsearch ligand conformer 730
          17          16           1
SMALL
USER_CHARGES
 
@<TRIPOS>ATOM
       1    N1      21.007856   18.285685   22.858252 N.4        1 MOL1        -0.5891
       2    H1      21.222679   18.164424   23.853225 H          1 MOL1         0.3726
       3    H2      21.812607   17.928019   22.334866 H          1 MOL1         0.3726
       4    H3      20.214571   17.676011   22.644149 H          1 MOL1         0.3726
       5    C1      20.712269   19.733583   22.517286 C.3        1 MOL1         0.0314
       6    H4      21.604917   20.310970   22.772904 H          1 MOL1         0.0999
       7    H5      19.892461   20.080329   23.152097 H          1 MOL1         0.0999
       8    C2      20.363406   19.977563   21.033919 C.3        1 MOL1        -0.1308
       9    H6      20.543865   21.038935   20.817654 H          1 MOL1         0.1025
      10    H7      21.053104   19.417309   20.388812 H          1 MOL1         0.1025
      11    C3      18.893931   19.657850   20.658246 C.3        1 MOL1        -0.1243
      12    H8      18.728639   19.964773   19.615909 H          1 MOL1         0.1025
      13    H9      18.214971   20.271500   21.266907 H          1 MOL1         0.1025
      14    C4      18.507833   18.167951   20.799695 C.3        1 MOL1        -0.2258
      15    H10     19.224555   17.519286   20.279412 H          1 MOL1         0.1036
      16    H11     17.517395   17.988306   20.361612 H          1 MOL1         0.1036
      17    H12     18.454153   17.864352   21.851658 H          1 MOL1         0.1036
@<TRIPOS>BOND
    1     1     2    1
    2     1     3    1
    3     1     4    1
    4     1     5    1
    5     5     6    1
    6     5     7    1
    7     5     8    1
    8     8     9    1
    9     8    10    1
   10     8    11    1
   11    11    12    1
   12    11    13    1
   13    11    14    1
   14    14    15    1
   15    14    16    1
   16    14    17    1
@<TRIPOS>SUBSTRUCTURE
       1 MOL1            1 RESIDUE      1      MOL     
@<SCITEGIC>MOL_PROPERTY
VConf Rank
SciTegic.value.IntegerValue
730

@<SCITEGIC>MOL_PROPERTY
Conf_Id
SciTegic.value.IntegerValue
44

@<SCITEGIC>MOL_PROPERTY
Delta U+W
SciTegic.value.DoubleValue
2.712

@<SCITEGIC>MOL_PROPERTY
U+W
SciTegic.value.DoubleValue
-13.153

@<SCITEGIC>MOL_PROPERTY
Grad RMS
SciTegic.value.DoubleValue
0.000000

@<SCITEGIC>MOL_PROPERTY
U
SciTegic.value.DoubleValue
47.423

@<SCITEGIC>MOL_PROPERTY
W
SciTegic.value.DoubleValue
-60.576

@<SCITEGIC>MOL_PROPERTY
W(PB)
SciTegic.value.DoubleValue
-62.262

@<SCITEGIC>MOL_PROPERTY
W(SA)
SciTegic.value.DoubleValue
1.687

@<SCITEGIC>MOL_PROPERTY
Valence
SciTegic.value.DoubleValue
2.414

@<SCITEGIC>MOL_PROPERTY
Coulomb
SciTegic.value.DoubleValue
44.831

@<SCITEGIC>MOL_PROPERTY
VdW
SciTegic.value.DoubleValue
0.178

@<SCITEGIC>MOL_PROPERTY
VdW6
SciTegic.value.DoubleValue
-3.743

@<SCITEGIC>MOL_PROPERTY
VdW12
SciTegic.value.DoubleValue
3.922

@<SCITEGIC>MOL_PROPERTY
Bond
SciTegic.value.DoubleValue
0.138

@<SCITEGIC>MOL_PROPERTY
Angle
SciTegic.value.DoubleValue
0.941

@<SCITEGIC>MOL_PROPERTY
Pdih
SciTegic.value.DoubleValue
1.335

@<SCITEGIC>MOL_PROPERTY
Idih
SciTegic.value.DoubleValue
0.000

@<SCITEGIC>MOL_PROPERTY
Tether
SciTegic.value.DoubleValue
0.000

@<TRIPOS>MOLECULE
guest-1_confgen4.mol2 : confsearch ligand conformer 731
          17          16           1
SMALL
USER_CHARGES
 
@<TRIPOS>ATOM
       1    N1      21.046926   20.256864   22.689659 N.4        1 MOL1        -0.5891
       2    H1      21.582195   20.023252   21.848612 H          1 MOL1         0.3726
       3    H2      21.484128   19.763367   23.473683 H          1 MOL1         0.3726
       4    H3      21.177835   21.259322   22.858802 H          1 MOL1         0.3726
       5    C1      19.581326   19.896645   22.540948 C.3        1 MOL1         0.0314
       6    H4      19.171676   20.477117   21.710260 H          1 MOL1         0.0999
       7    H5      19.067870   20.206502   23.455219 H          1 MOL1         0.0999
       8    C2      19.330880   18.393784   22.298860 C.3        1 MOL1        -0.1308
       9    H6      19.709217   17.822559   23.156946 H          1 MOL1         0.1025
      10    H7      18.247259   18.218640   22.268961 H          1 MOL1         0.1025
      11    C3      19.970705   17.850154   20.997074 C.3        1 MOL1        -0.1243
      12    H8      19.752930   16.775825   20.917717 H          1 MOL1         0.1025
      13    H9      21.064656   17.934398   21.050252 H          1 MOL1         0.1025
      14    C4      19.454879   18.562324   19.725644 C.3        1 MOL1        -0.2258
      15    H10     18.362111   18.490979   19.649248 H          1 MOL1         0.1036
      16    H11     19.883924   18.102575   18.825911 H          1 MOL1         0.1036
      17    H12     19.730126   19.624456   19.717754 H          1 MOL1         0.1036
@<TRIPOS>BOND
    1     1     2    1
    2     1     3    1
    3     1     4    1
    4     1     5    1
    5     5     6    1
    6     5     7    1
    7     5     8    1
    8     8     9    1
    9     8    10    1
   10     8    11    1
   11    11    12    1
   12    11    13    1
   13    11    14    1
   14    14    15    1
   15    14    16    1
   16    14    17    1
@<TRIPOS>SUBSTRUCTURE
       1 MOL1            1 RESIDUE      1      MOL     
@<SCITEGIC>MOL_PROPERTY
VConf Rank
SciTegic.value.IntegerValue
731

@<SCITEGIC>MOL_PROPERTY
Conf_Id
SciTegic.value.IntegerValue
1

@<SCITEGIC>MOL_PROPERTY
Delta U+W
SciTegic.value.DoubleValue
0.685

@<SCITEGIC>MOL_PROPERTY
U+W
SciTegic.value.DoubleValue
-15.179

@<SCITEGIC>MOL_PROPERTY
Grad RMS
SciTegic.value.DoubleValue
0.000000

@<SCITEGIC>MOL_PROPERTY
U
SciTegic.value.DoubleValue
45.697

@<SCITEGIC>MOL_PROPERTY
W
SciTegic.value.DoubleValue
-60.876

@<SCITEGIC>MOL_PROPERTY
W(PB)
SciTegic.value.DoubleValue
-62.586

@<SCITEGIC>MOL_PROPERTY
W(SA)
SciTegic.value.DoubleValue
1.710

@<SCITEGIC>MOL_PROPERTY
Valence
SciTegic.value.DoubleValue
1.263

@<SCITEGIC>MOL_PROPERTY
Coulomb
SciTegic.value.DoubleValue
44.179

@<SCITEGIC>MOL_PROPERTY
VdW
SciTegic.value.DoubleValue
0.255

@<SCITEGIC>MOL_PROPERTY
VdW6
SciTegic.value.DoubleValue
-3.552

@<SCITEGIC>MOL_PROPERTY
VdW12
SciTegic.value.DoubleValue
3.807

@<SCITEGIC>MOL_PROPERTY
Bond
SciTegic.value.DoubleValue
0.125

@<SCITEGIC>MOL_PROPERTY
Angle
SciTegic.value.DoubleValue
0.616

@<SCITEGIC>MOL_PROPERTY
Pdih
SciTegic.value.DoubleValue
0.521

@<SCITEGIC>MOL_PROPERTY
Idih
SciTegic.value.DoubleValue
0.000

@<SCITEGIC>MOL_PROPERTY
Tether
SciTegic.value.DoubleValue
0.000

@<TRIPOS>MOLECULE
guest-1_confgen4.mol2 : confsearch ligand conformer 732
          17          16           1
SMALL
USER_CHARGES
 
@<TRIPOS>ATOM
       1    N1      21.701473   19.622125   20.935121 N.4        1 MOL1        -0.5891
       2    H1      21.629716   20.485613   20.388661 H          1 MOL1         0.3726
       3    H2      21.394539   18.854870   20.330505 H          1 MOL1         0.3726
       4    H3      22.697406   19.472613   21.125989 H          1 MOL1         0.3726
       5    C1      20.886637   19.691432   22.212265 C.3        1 MOL1         0.0314
       6    H4      21.291506   20.503839   22.821866 H          1 MOL1         0.0999
       7    H5      21.030794   18.755452   22.758128 H          1 MOL1         0.0999
       8    C2      19.380679   19.930397   21.977947 C.3        1 MOL1        -0.1308
       9    H6      18.885049   20.030213   22.952724 H          1 MOL1         0.1025
      10    H7      19.243781   20.891919   21.465617 H          1 MOL1         0.1025
      11    C3      18.684185   18.810930   21.164774 C.3        1 MOL1        -0.1243
      12    H8      19.108040   18.759940   20.152647 H          1 MOL1         0.1025
      13    H9      17.624675   19.073547   21.036815 H          1 MOL1         0.1025
      14    C4      18.779637   17.423425   21.839696 C.3        1 MOL1        -0.2258
      15    H10     18.218504   16.675875   21.264138 H          1 MOL1         0.1036
      16    H11     18.360609   17.448356   22.854024 H          1 MOL1         0.1036
      17    H12     19.818758   17.077493   21.906824 H          1 MOL1         0.1036
@<TRIPOS>BOND
    1     1     2    1
    2     1     3    1
    3     1     4    1
    4     1     5    1
    5     5     6    1
    6     5     7    1
    7     5     8    1
    8     8     9    1
    9     8    10    1
   10     8    11    1
   11    11    12    1
   12    11    13    1
   13    11    14    1
   14    14    15    1
   15    14    16    1
   16    14    17    1
@<TRIPOS>SUBSTRUCTURE
       1 MOL1            1 RESIDUE      1      MOL     
@<SCITEGIC>MOL_PROPERTY
VConf Rank
SciTegic.value.IntegerValue
732

@<SCITEGIC>MOL_PROPERTY
Conf_Id
SciTegic.value.IntegerValue
43

@<SCITEGIC>MOL_PROPERTY
Delta U+W
SciTegic.value.DoubleValue
0.642

@<SCITEGIC>MOL_PROPERTY
U+W
SciTegic.value.DoubleValue
-15.222

@<SCITEGIC>MOL_PROPERTY
Grad RMS
SciTegic.value.DoubleValue
0.000000

@<SCITEGIC>MOL_PROPERTY
U
SciTegic.value.DoubleValue
45.697

@<SCITEGIC>MOL_PROPERTY
W
SciTegic.value.DoubleValue
-60.919

@<SCITEGIC>MOL_PROPERTY
W(PB)
SciTegic.value.DoubleValue
-62.631

@<SCITEGIC>MOL_PROPERTY
W(SA)
SciTegic.value.DoubleValue
1.712

@<SCITEGIC>MOL_PROPERTY
Valence
SciTegic.value.DoubleValue
1.262

@<SCITEGIC>MOL_PROPERTY
Coulomb
SciTegic.value.DoubleValue
44.179

@<SCITEGIC>MOL_PROPERTY
VdW
SciTegic.value.DoubleValue
0.255

@<SCITEGIC>MOL_PROPERTY
VdW6
SciTegic.value.DoubleValue
-3.552

@<SCITEGIC>MOL_PROPERTY
VdW12
SciTegic.value.DoubleValue
3.807

@<SCITEGIC>MOL_PROPERTY
Bond
SciTegic.value.DoubleValue
0.125

@<SCITEGIC>MOL_PROPERTY
Angle
SciTegic.value.DoubleValue
0.616

@<SCITEGIC>MOL_PROPERTY
Pdih
SciTegic.value.DoubleValue
0.521

@<SCITEGIC>MOL_PROPERTY
Idih
SciTegic.value.DoubleValue
0.000

@<SCITEGIC>MOL_PROPERTY
Tether
SciTegic.value.DoubleValue
0.000

@<TRIPOS>MOLECULE
guest-1_confgen4.mol2 : confsearch ligand conformer 733
          17          16           1
SMALL
USER_CHARGES
 
@<TRIPOS>ATOM
       1    N1      17.753968   19.336445   22.891438 N.4        1 MOL1        -0.5891
       2    H1      18.137853   19.226327   23.834943 H          1 MOL1         0.3726
       3    H2      17.334584   18.438746   22.630765 H          1 MOL1         0.3726
       4    H3      16.986736   20.012790   22.960879 H          1 MOL1         0.3726
       5    C1      18.808536   19.780602   21.897473 C.3        1 MOL1         0.0314
       6    H4      19.188022   20.753911   22.220247 H          1 MOL1         0.0999
       7    H5      18.324238   19.907051   20.925367 H          1 MOL1         0.0999
       8    C2      19.977115   18.786662   21.767981 C.3        1 MOL1        -0.1308
       9    H6      20.451220   18.650391   22.749126 H          1 MOL1         0.1025
      10    H7      19.590432   17.806496   21.458561 H          1 MOL1         0.1025
      11    C3      21.027505   19.276515   20.747076 C.3        1 MOL1        -0.1243
      12    H8      21.412530   20.259149   21.054504 H          1 MOL1         0.1025
      13    H9      20.552820   19.416215   19.765503 H          1 MOL1         0.1025
      14    C4      22.202893   18.284476   20.611887 C.3        1 MOL1        -0.2258
      15    H10     22.937387   18.650430   19.882748 H          1 MOL1         0.1036
      16    H11     21.853058   17.300947   20.272043 H          1 MOL1         0.1036
      17    H12     22.719512   18.150494   21.571242 H          1 MOL1         0.1036
@<TRIPOS>BOND
    1     1     2    1
    2     1     3    1
    3     1     4    1
    4     1     5    1
    5     5     6    1
    6     5     7    1
    7     5     8    1
    8     8     9    1
    9     8    10    1
   10     8    11    1
   11    11    12    1
   12    11    13    1
   13    11    14    1
   14    14    15    1
   15    14    16    1
   16    14    17    1
@<TRIPOS>SUBSTRUCTURE
       1 MOL1            1 RESIDUE      1      MOL     
@<SCITEGIC>MOL_PROPERTY
VConf Rank
SciTegic.value.IntegerValue
733

@<SCITEGIC>MOL_PROPERTY
Conf_Id
SciTegic.value.IntegerValue
7

@<SCITEGIC>MOL_PROPERTY
Delta U+W
SciTegic.value.DoubleValue
0.000

@<SCITEGIC>MOL_PROPERTY
U+W
SciTegic.value.DoubleValue
-15.865

@<SCITEGIC>MOL_PROPERTY
Grad RMS
SciTegic.value.DoubleValue
0.000000

@<SCITEGIC>MOL_PROPERTY
U
SciTegic.value.DoubleValue
44.664

@<SCITEGIC>MOL_PROPERTY
W
SciTegic.value.DoubleValue
-60.529

@<SCITEGIC>MOL_PROPERTY
W(PB)
SciTegic.value.DoubleValue
-62.309

@<SCITEGIC>MOL_PROPERTY
W(SA)
SciTegic.value.DoubleValue
1.780

@<SCITEGIC>MOL_PROPERTY
Valence
SciTegic.value.DoubleValue
0.872

@<SCITEGIC>MOL_PROPERTY
Coulomb
SciTegic.value.DoubleValue
43.648

@<SCITEGIC>MOL_PROPERTY
VdW
SciTegic.value.DoubleValue
0.144

@<SCITEGIC>MOL_PROPERTY
VdW6
SciTegic.value.DoubleValue
-2.370

@<SCITEGIC>MOL_PROPERTY
VdW12
SciTegic.value.DoubleValue
2.515

@<SCITEGIC>MOL_PROPERTY
Bond
SciTegic.value.DoubleValue
0.080

@<SCITEGIC>MOL_PROPERTY
Angle
SciTegic.value.DoubleValue
0.376

@<SCITEGIC>MOL_PROPERTY
Pdih
SciTegic.value.DoubleValue
0.416

@<SCITEGIC>MOL_PROPERTY
Idih
SciTegic.value.DoubleValue
0.000

@<SCITEGIC>MOL_PROPERTY
Tether
SciTegic.value.DoubleValue
0.000

@<TRIPOS>MOLECULE
guest-1_confgen4.mol2 : confsearch ligand conformer 734
          17          16           1
SMALL
USER_CHARGES
 
@<TRIPOS>ATOM
       1    N1      18.966112   16.971187   20.998919 N.4        1 MOL1        -0.5891
       2    H1      18.764666   16.440010   21.851514 H          1 MOL1         0.3726
       3    H2      19.802709   16.556723   20.577052 H          1 MOL1         0.3726
       4    H3      18.190566   16.797429   20.351478 H          1 MOL1         0.3726
       5    C1      19.145264   18.449770   21.280083 C.3        1 MOL1         0.0314
       6    H4      18.209453   18.830015   21.698508 H          1 MOL1         0.0999
       7    H5      19.324399   18.953611   20.326724 H          1 MOL1         0.0999
       8    C2      20.304415   18.746716   22.250728 C.3        1 MOL1        -0.1308
       9    H6      20.134898   18.204154   23.190284 H          1 MOL1         0.1025
      10    H7      21.244046   18.363315   21.831223 H          1 MOL1         0.1025
      11    C3      20.451840   20.254885   22.560081 C.3        1 MOL1        -0.1243
      12    H8      21.238803   20.389044   23.315509 H          1 MOL1         0.1025
      13    H9      19.523402   20.632934   23.010927 H          1 MOL1         0.1025
      14    C4      20.802841   21.096311   21.311578 C.3        1 MOL1        -0.2258
      15    H10     21.724847   20.734803   20.837930 H          1 MOL1         0.1036
      16    H11     20.958047   22.147512   21.587068 H          1 MOL1         0.1036
      17    H12     19.999074   21.065355   20.565193 H          1 MOL1         0.1036
@<TRIPOS>BOND
    1     1     2    1
    2     1     3    1
    3     1     4    1
    4     1     5    1
    5     5     6    1
    6     5     7    1
    7     5     8    1
    8     8     9    1
    9     8    10    1
   10     8    11    1
   11    11    12    1
   12    11    13    1
   13    11    14    1
   14    14    15    1
   15    14    16    1
   16    14    17    1
@<TRIPOS>SUBSTRUCTURE
       1 MOL1            1 RESIDUE      1      MOL     
@<SCITEGIC>MOL_PROPERTY
VConf Rank
SciTegic.value.IntegerValue
734

@<SCITEGIC>MOL_PROPERTY
Conf_Id
SciTegic.value.IntegerValue
36

@<SCITEGIC>MOL_PROPERTY
Delta U+W
SciTegic.value.DoubleValue
0.275

@<SCITEGIC>MOL_PROPERTY
U+W
SciTegic.value.DoubleValue
-15.590

@<SCITEGIC>MOL_PROPERTY
Grad RMS
SciTegic.value.DoubleValue
0.000000

@<SCITEGIC>MOL_PROPERTY
U
SciTegic.value.DoubleValue
45.174

@<SCITEGIC>MOL_PROPERTY
W
SciTegic.value.DoubleValue
-60.765

@<SCITEGIC>MOL_PROPERTY
W(PB)
SciTegic.value.DoubleValue
-62.518

@<SCITEGIC>MOL_PROPERTY
W(SA)
SciTegic.value.DoubleValue
1.754

@<SCITEGIC>MOL_PROPERTY
Valence
SciTegic.value.DoubleValue
1.161

@<SCITEGIC>MOL_PROPERTY
Coulomb
SciTegic.value.DoubleValue
43.789

@<SCITEGIC>MOL_PROPERTY
VdW
SciTegic.value.DoubleValue
0.224

@<SCITEGIC>MOL_PROPERTY
VdW6
SciTegic.value.DoubleValue
-2.897

@<SCITEGIC>MOL_PROPERTY
VdW12
SciTegic.value.DoubleValue
3.121

@<SCITEGIC>MOL_PROPERTY
Bond
SciTegic.value.DoubleValue
0.100

@<SCITEGIC>MOL_PROPERTY
Angle
SciTegic.value.DoubleValue
0.500

@<SCITEGIC>MOL_PROPERTY
Pdih
SciTegic.value.DoubleValue
0.561

@<SCITEGIC>MOL_PROPERTY
Idih
SciTegic.value.DoubleValue
0.000

@<SCITEGIC>MOL_PROPERTY
Tether
SciTegic.value.DoubleValue
0.000

@<TRIPOS>MOLECULE
guest-1_confgen4.mol2 : confsearch ligand conformer 735
          17          16           1
SMALL
USER_CHARGES
 
@<TRIPOS>ATOM
       1    N1      21.485369   19.604094   20.775872 N.4        1 MOL1        -0.5891
       2    H1      21.528553   18.594993   20.939259 H          1 MOL1         0.3726
       3    H2      22.039403   20.052453   21.511740 H          1 MOL1         0.3726
       4    H3      21.965278   19.787729   19.888861 H          1 MOL1         0.3726
       5    C1      20.055857   20.110304   20.759231 C.3        1 MOL1         0.0314
       6    H4      19.533711   19.650967   19.915623 H          1 MOL1         0.0999
       7    H5      20.100425   21.188399   20.582423 H          1 MOL1         0.0999
       8    C2      19.274226   19.846636   22.063511 C.3        1 MOL1        -0.1308
       9    H6      19.903322   20.081300   22.932361 H          1 MOL1         0.1025
      10    H7      18.434883   20.553772   22.099679 H          1 MOL1         0.1025
      11    C3      18.695924   18.413870   22.187816 C.3        1 MOL1        -0.1243
      12    H8      18.018607   18.214334   21.345528 H          1 MOL1         0.1025
      13    H9      18.075435   18.368591   23.093869 H          1 MOL1         0.1025
      14    C4      19.763088   17.298549   22.265937 C.3        1 MOL1        -0.2258
      15    H10     20.273639   17.162207   21.305508 H          1 MOL1         0.1036
      16    H11     19.293215   16.339472   22.519997 H          1 MOL1         0.1036
      17    H12     20.512262   17.517045   23.038045 H          1 MOL1         0.1036
@<TRIPOS>BOND
    1     1     2    1
    2     1     3    1
    3     1     4    1
    4     1     5    1
    5     5     6    1
    6     5     7    1
    7     5     8    1
    8     8     9    1
    9     8    10    1
   10     8    11    1
   11    11    12    1
   12    11    13    1
   13    11    14    1
   14    14    15    1
   15    14    16    1
   16    14    17    1
@<TRIPOS>SUBSTRUCTURE
       1 MOL1            1 RESIDUE      1      MOL     
@<SCITEGIC>MOL_PROPERTY
VConf Rank
SciTegic.value.IntegerValue
735

@<SCITEGIC>MOL_PROPERTY
Conf_Id
SciTegic.value.IntegerValue
19

@<SCITEGIC>MOL_PROPERTY
Delta U+W
SciTegic.value.DoubleValue
2.662

@<SCITEGIC>MOL_PROPERTY
U+W
SciTegic.value.DoubleValue
-13.203

@<SCITEGIC>MOL_PROPERTY
Grad RMS
SciTegic.value.DoubleValue
0.000000

@<SCITEGIC>MOL_PROPERTY
U
SciTegic.value.DoubleValue
47.423

@<SCITEGIC>MOL_PROPERTY
W
SciTegic.value.DoubleValue
-60.626

@<SCITEGIC>MOL_PROPERTY
W(PB)
SciTegic.value.DoubleValue
-62.328

@<SCITEGIC>MOL_PROPERTY
W(SA)
SciTegic.value.DoubleValue
1.702

@<SCITEGIC>MOL_PROPERTY
Valence
SciTegic.value.DoubleValue
2.414

@<SCITEGIC>MOL_PROPERTY
Coulomb
SciTegic.value.DoubleValue
44.831

@<SCITEGIC>MOL_PROPERTY
VdW
SciTegic.value.DoubleValue
0.178

@<SCITEGIC>MOL_PROPERTY
VdW6
SciTegic.value.DoubleValue
-3.743

@<SCITEGIC>MOL_PROPERTY
VdW12
SciTegic.value.DoubleValue
3.921

@<SCITEGIC>MOL_PROPERTY
Bond
SciTegic.value.DoubleValue
0.138

@<SCITEGIC>MOL_PROPERTY
Angle
SciTegic.value.DoubleValue
0.941

@<SCITEGIC>MOL_PROPERTY
Pdih
SciTegic.value.DoubleValue
1.335

@<SCITEGIC>MOL_PROPERTY
Idih
SciTegic.value.DoubleValue
0.000

@<SCITEGIC>MOL_PROPERTY
Tether
SciTegic.value.DoubleValue
0.000

@<TRIPOS>MOLECULE
guest-1_confgen4.mol2 : confsearch ligand conformer 736
          17          16           1
SMALL
USER_CHARGES
 
@<TRIPOS>ATOM
       1    N1      19.988030   20.257108   23.019623 N.4        1 MOL1        -0.5891
       2    H1      20.285571   21.186758   23.332744 H          1 MOL1         0.3726
       3    H2      19.760794   19.718856   23.861127 H          1 MOL1         0.3726
       4    H3      19.117395   20.379118   22.496218 H          1 MOL1         0.3726
       5    C1      21.054788   19.574660   22.185159 C.3        1 MOL1         0.0314
       6    H4      21.943484   19.482476   22.815443 H          1 MOL1         0.0999
       7    H5      21.304849   20.223527   21.341511 H          1 MOL1         0.0999
       8    C2      20.657601   18.175790   21.668421 C.3        1 MOL1        -0.1308
       9    H6      21.581296   17.633321   21.426841 H          1 MOL1         0.1025
      10    H7      20.172860   17.602950   22.470050 H          1 MOL1         0.1025
      11    C3      19.766675   18.188217   20.400036 C.3        1 MOL1        -0.1243
      12    H8      19.633411   17.151379   20.060628 H          1 MOL1         0.1025
      13    H9      20.289847   18.709442   19.586012 H          1 MOL1         0.1025
      14    C4      18.372004   18.822092   20.604914 C.3        1 MOL1        -0.2258
      15    H10     17.859990   18.386952   21.473043 H          1 MOL1         0.1036
      16    H11     17.741087   18.646471   19.723859 H          1 MOL1         0.1036
      17    H12     18.439530   19.907728   20.740975 H          1 MOL1         0.1036
@<TRIPOS>BOND
    1     1     2    1
    2     1     3    1
    3     1     4    1
    4     1     5    1
    5     5     6    1
    6     5     7    1
    7     5     8    1
    8     8     9    1
    9     8    10    1
   10     8    11    1
   11    11    12    1
   12    11    13    1
   13    11    14    1
   14    14    15    1
   15    14    16    1
   16    14    17    1
@<TRIPOS>SUBSTRUCTURE
       1 MOL1            1 RESIDUE      1      MOL     
@<SCITEGIC>MOL_PROPERTY
VConf Rank
SciTegic.value.IntegerValue
736

@<SCITEGIC>MOL_PROPERTY
Conf_Id
SciTegic.value.IntegerValue
44

@<SCITEGIC>MOL_PROPERTY
Delta U+W
SciTegic.value.DoubleValue
2.712

@<SCITEGIC>MOL_PROPERTY
U+W
SciTegic.value.DoubleValue
-13.153

@<SCITEGIC>MOL_PROPERTY
Grad RMS
SciTegic.value.DoubleValue
0.000000

@<SCITEGIC>MOL_PROPERTY
U
SciTegic.value.DoubleValue
47.423

@<SCITEGIC>MOL_PROPERTY
W
SciTegic.value.DoubleValue
-60.576

@<SCITEGIC>MOL_PROPERTY
W(PB)
SciTegic.value.DoubleValue
-62.262

@<SCITEGIC>MOL_PROPERTY
W(SA)
SciTegic.value.DoubleValue
1.687

@<SCITEGIC>MOL_PROPERTY
Valence
SciTegic.value.DoubleValue
2.414

@<SCITEGIC>MOL_PROPERTY
Coulomb
SciTegic.value.DoubleValue
44.831

@<SCITEGIC>MOL_PROPERTY
VdW
SciTegic.value.DoubleValue
0.178

@<SCITEGIC>MOL_PROPERTY
VdW6
SciTegic.value.DoubleValue
-3.743

@<SCITEGIC>MOL_PROPERTY
VdW12
SciTegic.value.DoubleValue
3.922

@<SCITEGIC>MOL_PROPERTY
Bond
SciTegic.value.DoubleValue
0.138

@<SCITEGIC>MOL_PROPERTY
Angle
SciTegic.value.DoubleValue
0.941

@<SCITEGIC>MOL_PROPERTY
Pdih
SciTegic.value.DoubleValue
1.335

@<SCITEGIC>MOL_PROPERTY
Idih
SciTegic.value.DoubleValue
0.000

@<SCITEGIC>MOL_PROPERTY
Tether
SciTegic.value.DoubleValue
0.000

@<TRIPOS>MOLECULE
guest-1_confgen4.mol2 : confsearch ligand conformer 737
          17          16           1
SMALL
USER_CHARGES
 
@<TRIPOS>ATOM
       1    N1      20.647743   17.788343   20.238692 N.4        1 MOL1        -0.5891
       2    H1      20.456133   17.238423   21.080904 H          1 MOL1         0.3726
       3    H2      21.665386   17.872832   20.157192 H          1 MOL1         0.3726
       4    H3      20.330369   17.231238   19.438957 H          1 MOL1         0.3726
       5    C1      19.969483   19.143902   20.286448 C.3        1 MOL1         0.0314
       6    H4      18.890015   18.981574   20.343045 H          1 MOL1         0.0999
       7    H5      20.185019   19.657394   19.345487 H          1 MOL1         0.0999
       8    C2      20.425335   20.027121   21.466297 C.3        1 MOL1        -0.1308
       9    H6      21.503072   20.218084   21.378179 H          1 MOL1         0.1025
      10    H7      19.933790   21.005516   21.383048 H          1 MOL1         0.1025
      11    C3      20.122745   19.422132   22.859848 C.3        1 MOL1        -0.1243
      12    H8      20.493774   20.110208   23.632373 H          1 MOL1         0.1025
      13    H9      20.681354   18.485917   22.994428 H          1 MOL1         0.1025
      14    C4      18.616195   19.167957   23.095429 C.3        1 MOL1        -0.2258
      15    H10     18.035593   20.090774   22.967458 H          1 MOL1         0.1036
      16    H11     18.442378   18.802046   24.115657 H          1 MOL1         0.1036
      17    H12     18.220260   18.415302   22.402107 H          1 MOL1         0.1036
@<TRIPOS>BOND
    1     1     2    1
    2     1     3    1
    3     1     4    1
    4     1     5    1
    5     5     6    1
    6     5     7    1
    7     5     8    1
    8     8     9    1
    9     8    10    1
   10     8    11    1
   11    11    12    1
   12    11    13    1
   13    11    14    1
   14    14    15    1
   15    14    16    1
   16    14    17    1
@<TRIPOS>SUBSTRUCTURE
       1 MOL1            1 RESIDUE      1      MOL     
@<SCITEGIC>MOL_PROPERTY
VConf Rank
SciTegic.value.IntegerValue
737

@<SCITEGIC>MOL_PROPERTY
Conf_Id
SciTegic.value.IntegerValue
1

@<SCITEGIC>MOL_PROPERTY
Delta U+W
SciTegic.value.DoubleValue
0.685

@<SCITEGIC>MOL_PROPERTY
U+W
SciTegic.value.DoubleValue
-15.179

@<SCITEGIC>MOL_PROPERTY
Grad RMS
SciTegic.value.DoubleValue
0.000000

@<SCITEGIC>MOL_PROPERTY
U
SciTegic.value.DoubleValue
45.697

@<SCITEGIC>MOL_PROPERTY
W
SciTegic.value.DoubleValue
-60.876

@<SCITEGIC>MOL_PROPERTY
W(PB)
SciTegic.value.DoubleValue
-62.586

@<SCITEGIC>MOL_PROPERTY
W(SA)
SciTegic.value.DoubleValue
1.710

@<SCITEGIC>MOL_PROPERTY
Valence
SciTegic.value.DoubleValue
1.263

@<SCITEGIC>MOL_PROPERTY
Coulomb
SciTegic.value.DoubleValue
44.179

@<SCITEGIC>MOL_PROPERTY
VdW
SciTegic.value.DoubleValue
0.255

@<SCITEGIC>MOL_PROPERTY
VdW6
SciTegic.value.DoubleValue
-3.552

@<SCITEGIC>MOL_PROPERTY
VdW12
SciTegic.value.DoubleValue
3.807

@<SCITEGIC>MOL_PROPERTY
Bond
SciTegic.value.DoubleValue
0.125

@<SCITEGIC>MOL_PROPERTY
Angle
SciTegic.value.DoubleValue
0.616

@<SCITEGIC>MOL_PROPERTY
Pdih
SciTegic.value.DoubleValue
0.521

@<SCITEGIC>MOL_PROPERTY
Idih
SciTegic.value.DoubleValue
0.000

@<SCITEGIC>MOL_PROPERTY
Tether
SciTegic.value.DoubleValue
0.000

@<TRIPOS>MOLECULE
guest-1_confgen4.mol2 : confsearch ligand conformer 738
          17          16           1
SMALL
USER_CHARGES
 
@<TRIPOS>ATOM
       1    N1      18.147319   18.396933   20.980943 N.4        1 MOL1        -0.5891
       2    H1      18.217787   17.503318   20.485096 H          1 MOL1         0.3726
       3    H2      18.449173   19.128355   20.331054 H          1 MOL1         0.3726
       4    H3      17.152176   18.555492   21.168606 H          1 MOL1         0.3726
       5    C1      18.969571   18.403311   22.255195 C.3        1 MOL1         0.0314
       6    H4      18.569908   17.626928   22.913250 H          1 MOL1         0.0999
       7    H5      18.826547   19.369132   22.746662 H          1 MOL1         0.0999
       8    C2      20.474672   18.153839   22.026380 C.3        1 MOL1        -0.1308
       9    H6      20.976064   18.111643   23.002407 H          1 MOL1         0.1025
      10    H7      20.610682   17.164451   21.569913 H          1 MOL1         0.1025
      11    C3      21.164142   19.225470   21.145588 C.3        1 MOL1        -0.1243
      12    H8      20.734414   19.216883   20.134690 H          1 MOL1         0.1025
      13    H9      22.223459   18.957760   21.026921 H          1 MOL1         0.1025
      14    C4      21.069602   20.649630   21.739413 C.3        1 MOL1        -0.2258
      15    H10     21.625858   21.363520   21.118197 H          1 MOL1         0.1036
      16    H11     21.494461   20.684352   22.751024 H          1 MOL1         0.1036
      17    H12     20.030150   20.997021   21.792401 H          1 MOL1         0.1036
@<TRIPOS>BOND
    1     1     2    1
    2     1     3    1
    3     1     4    1
    4     1     5    1
    5     5     6    1
    6     5     7    1
    7     5     8    1
    8     8     9    1
    9     8    10    1
   10     8    11    1
   11    11    12    1
   12    11    13    1
   13    11    14    1
   14    14    15    1
   15    14    16    1
   16    14    17    1
@<TRIPOS>SUBSTRUCTURE
       1 MOL1            1 RESIDUE      1      MOL     
@<SCITEGIC>MOL_PROPERTY
VConf Rank
SciTegic.value.IntegerValue
738

@<SCITEGIC>MOL_PROPERTY
Conf_Id
SciTegic.value.IntegerValue
43

@<SCITEGIC>MOL_PROPERTY
Delta U+W
SciTegic.value.DoubleValue
0.642

@<SCITEGIC>MOL_PROPERTY
U+W
SciTegic.value.DoubleValue
-15.222

@<SCITEGIC>MOL_PROPERTY
Grad RMS
SciTegic.value.DoubleValue
0.000000

@<SCITEGIC>MOL_PROPERTY
U
SciTegic.value.DoubleValue
45.697

@<SCITEGIC>MOL_PROPERTY
W
SciTegic.value.DoubleValue
-60.919

@<SCITEGIC>MOL_PROPERTY
W(PB)
SciTegic.value.DoubleValue
-62.631

@<SCITEGIC>MOL_PROPERTY
W(SA)
SciTegic.value.DoubleValue
1.712

@<SCITEGIC>MOL_PROPERTY
Valence
SciTegic.value.DoubleValue
1.262

@<SCITEGIC>MOL_PROPERTY
Coulomb
SciTegic.value.DoubleValue
44.179

@<SCITEGIC>MOL_PROPERTY
VdW
SciTegic.value.DoubleValue
0.255

@<SCITEGIC>MOL_PROPERTY
VdW6
SciTegic.value.DoubleValue
-3.552

@<SCITEGIC>MOL_PROPERTY
VdW12
SciTegic.value.DoubleValue
3.807

@<SCITEGIC>MOL_PROPERTY
Bond
SciTegic.value.DoubleValue
0.125

@<SCITEGIC>MOL_PROPERTY
Angle
SciTegic.value.DoubleValue
0.616

@<SCITEGIC>MOL_PROPERTY
Pdih
SciTegic.value.DoubleValue
0.521

@<SCITEGIC>MOL_PROPERTY
Idih
SciTegic.value.DoubleValue
0.000

@<SCITEGIC>MOL_PROPERTY
Tether
SciTegic.value.DoubleValue
0.000

@<TRIPOS>MOLECULE
guest-1_confgen4.mol2 : confsearch ligand conformer 739
          17          16           1
SMALL
USER_CHARGES
 
@<TRIPOS>ATOM
       1    N1      17.584160   18.176193   21.181078 N.4        1 MOL1        -0.5891
       2    H1      17.674268   17.300416   21.705093 H          1 MOL1         0.3726
       3    H2      17.702325   17.946863   20.189543 H          1 MOL1         0.3726
       4    H3      16.616425   18.493397   21.298466 H          1 MOL1         0.3726
       5    C1      18.579766   19.220649   21.645015 C.3        1 MOL1         0.0314
       6    H4      18.375929   19.437504   22.697131 H          1 MOL1         0.0999
       7    H5      18.406070   20.132666   21.067452 H          1 MOL1         0.0999
       8    C2      20.044929   18.776569   21.482683 C.3        1 MOL1        -0.1308
       9    H6      20.211603   17.852072   22.051467 H          1 MOL1         0.1025
      10    H7      20.241681   18.544988   20.427387 H          1 MOL1         0.1025
      11    C3      21.024986   19.867890   21.966448 C.3        1 MOL1        -0.1243
      12    H8      20.826342   20.102509   23.021825 H          1 MOL1         0.1025
      13    H9      20.856440   20.794551   21.399687 H          1 MOL1         0.1025
      14    C4      22.496786   19.429436   21.806709 C.3        1 MOL1        -0.2258
      15    H10     23.176379   20.217743   22.155670 H          1 MOL1         0.1036
      16    H11     22.735339   19.220872   20.755614 H          1 MOL1         0.1036
      17    H12     22.704979   18.523327   22.390515 H          1 MOL1         0.1036
@<TRIPOS>BOND
    1     1     2    1
    2     1     3    1
    3     1     4    1
    4     1     5    1
    5     5     6    1
    6     5     7    1
    7     5     8    1
    8     8     9    1
    9     8    10    1
   10     8    11    1
   11    11    12    1
   12    11    13    1
   13    11    14    1
   14    14    15    1
   15    14    16    1
   16    14    17    1
@<TRIPOS>SUBSTRUCTURE
       1 MOL1            1 RESIDUE      1      MOL     
@<SCITEGIC>MOL_PROPERTY
VConf Rank
SciTegic.value.IntegerValue
739

@<SCITEGIC>MOL_PROPERTY
Conf_Id
SciTegic.value.IntegerValue
7

@<SCITEGIC>MOL_PROPERTY
Delta U+W
SciTegic.value.DoubleValue
0.000

@<SCITEGIC>MOL_PROPERTY
U+W
SciTegic.value.DoubleValue
-15.865

@<SCITEGIC>MOL_PROPERTY
Grad RMS
SciTegic.value.DoubleValue
0.000000

@<SCITEGIC>MOL_PROPERTY
U
SciTegic.value.DoubleValue
44.664

@<SCITEGIC>MOL_PROPERTY
W
SciTegic.value.DoubleValue
-60.529

@<SCITEGIC>MOL_PROPERTY
W(PB)
SciTegic.value.DoubleValue
-62.309

@<SCITEGIC>MOL_PROPERTY
W(SA)
SciTegic.value.DoubleValue
1.780

@<SCITEGIC>MOL_PROPERTY
Valence
SciTegic.value.DoubleValue
0.872

@<SCITEGIC>MOL_PROPERTY
Coulomb
SciTegic.value.DoubleValue
43.648

@<SCITEGIC>MOL_PROPERTY
VdW
SciTegic.value.DoubleValue
0.144

@<SCITEGIC>MOL_PROPERTY
VdW6
SciTegic.value.DoubleValue
-2.370

@<SCITEGIC>MOL_PROPERTY
VdW12
SciTegic.value.DoubleValue
2.515

@<SCITEGIC>MOL_PROPERTY
Bond
SciTegic.value.DoubleValue
0.080

@<SCITEGIC>MOL_PROPERTY
Angle
SciTegic.value.DoubleValue
0.376

@<SCITEGIC>MOL_PROPERTY
Pdih
SciTegic.value.DoubleValue
0.416

@<SCITEGIC>MOL_PROPERTY
Idih
SciTegic.value.DoubleValue
0.000

@<SCITEGIC>MOL_PROPERTY
Tether
SciTegic.value.DoubleValue
0.000

@<TRIPOS>MOLECULE
guest-1_confgen4.mol2 : confsearch ligand conformer 740
          17          16           1
SMALL
USER_CHARGES
 
@<TRIPOS>ATOM
       1    N1      20.092157   17.003066   22.811954 N.4        1 MOL1        -0.5891
       2    H1      20.045366   17.193184   23.817595 H          1 MOL1         0.3726
       3    H2      21.070122   16.792363   22.590963 H          1 MOL1         0.3726
       4    H3      19.559263   16.142840   22.648010 H          1 MOL1         0.3726
       5    C1      19.561114   18.160493   21.989936 C.3        1 MOL1         0.0314
       6    H4      18.510654   18.308877   22.254366 H          1 MOL1         0.0999
       7    H5      19.612463   17.875288   20.935962 H          1 MOL1         0.0999
       8    C2      20.340709   19.470723   22.212392 C.3        1 MOL1        -0.1308
       9    H6      20.316755   19.726827   23.279966 H          1 MOL1         0.1025
      10    H7      21.396093   19.321201   21.948392 H          1 MOL1         0.1025
      11    C3      19.764945   20.652944   21.398232 C.3        1 MOL1        -0.1243
      12    H8      20.312427   21.568572   21.662564 H          1 MOL1         0.1025
      13    H9      18.718067   20.825371   21.685454 H          1 MOL1         0.1025
      14    C4      19.854986   20.435086   19.870362 C.3        1 MOL1        -0.2258
      15    H10     20.891585   20.254302   19.557462 H          1 MOL1         0.1036
      16    H11     19.492975   21.321325   19.333206 H          1 MOL1         0.1036
      17    H12     19.245700   19.581311   19.547983 H          1 MOL1         0.1036
@<TRIPOS>BOND
    1     1     2    1
    2     1     3    1
    3     1     4    1
    4     1     5    1
    5     5     6    1
    6     5     7    1
    7     5     8    1
    8     8     9    1
    9     8    10    1
   10     8    11    1
   11    11    12    1
   12    11    13    1
   13    11    14    1
   14    14    15    1
   15    14    16    1
   16    14    17    1
@<TRIPOS>SUBSTRUCTURE
       1 MOL1            1 RESIDUE      1      MOL     
@<SCITEGIC>MOL_PROPERTY
VConf Rank
SciTegic.value.IntegerValue
740

@<SCITEGIC>MOL_PROPERTY
Conf_Id
SciTegic.value.IntegerValue
36

@<SCITEGIC>MOL_PROPERTY
Delta U+W
SciTegic.value.DoubleValue
0.275

@<SCITEGIC>MOL_PROPERTY
U+W
SciTegic.value.DoubleValue
-15.590

@<SCITEGIC>MOL_PROPERTY
Grad RMS
SciTegic.value.DoubleValue
0.000000

@<SCITEGIC>MOL_PROPERTY
U
SciTegic.value.DoubleValue
45.174

@<SCITEGIC>MOL_PROPERTY
W
SciTegic.value.DoubleValue
-60.765

@<SCITEGIC>MOL_PROPERTY
W(PB)
SciTegic.value.DoubleValue
-62.518

@<SCITEGIC>MOL_PROPERTY
W(SA)
SciTegic.value.DoubleValue
1.754

@<SCITEGIC>MOL_PROPERTY
Valence
SciTegic.value.DoubleValue
1.161

@<SCITEGIC>MOL_PROPERTY
Coulomb
SciTegic.value.DoubleValue
43.789

@<SCITEGIC>MOL_PROPERTY
VdW
SciTegic.value.DoubleValue
0.224

@<SCITEGIC>MOL_PROPERTY
VdW6
SciTegic.value.DoubleValue
-2.897

@<SCITEGIC>MOL_PROPERTY
VdW12
SciTegic.value.DoubleValue
3.121

@<SCITEGIC>MOL_PROPERTY
Bond
SciTegic.value.DoubleValue
0.100

@<SCITEGIC>MOL_PROPERTY
Angle
SciTegic.value.DoubleValue
0.500

@<SCITEGIC>MOL_PROPERTY
Pdih
SciTegic.value.DoubleValue
0.561

@<SCITEGIC>MOL_PROPERTY
Idih
SciTegic.value.DoubleValue
0.000

@<SCITEGIC>MOL_PROPERTY
Tether
SciTegic.value.DoubleValue
0.000

@<TRIPOS>MOLECULE
guest-1_confgen4.mol2 : confsearch ligand conformer 741
          17          16           1
SMALL
USER_CHARGES
 
@<TRIPOS>ATOM
       1    N1      20.822801   20.525306   22.156099 N.4        1 MOL1        -0.5891
       2    H1      20.474246   20.621931   21.199011 H          1 MOL1         0.3726
       3    H2      21.823385   20.314891   22.092565 H          1 MOL1         0.3726
       4    H3      20.740100   21.444438   22.602394 H          1 MOL1         0.3726
       5    C1      20.069663   19.455740   22.923459 C.3        1 MOL1         0.0314
       6    H4      19.025451   19.765466   23.018288 H          1 MOL1         0.0999
       7    H5      20.502936   19.416927   23.926607 H          1 MOL1         0.0999
       8    C2      20.142179   18.050458   22.289791 C.3        1 MOL1        -0.1308
       9    H6      21.169236   17.837464   21.964958 H          1 MOL1         0.1025
      10    H7      19.916505   17.316922   23.075185 H          1 MOL1         0.1025
      11    C3      19.148719   17.819678   21.122536 C.3        1 MOL1        -0.1243
      12    H8      18.119856   17.974413   21.476823 H          1 MOL1         0.1025
      13    H9      19.210168   16.765049   20.819268 H          1 MOL1         0.1025
      14    C4      19.404530   18.704385   19.881272 C.3        1 MOL1        -0.2258
      15    H10     19.152754   19.753362   20.076036 H          1 MOL1         0.1036
      16    H11     18.778540   18.373230   19.042447 H          1 MOL1         0.1036
      17    H12     20.452130   18.645057   19.558523 H          1 MOL1         0.1036
@<TRIPOS>BOND
    1     1     2    1
    2     1     3    1
    3     1     4    1
    4     1     5    1
    5     5     6    1
    6     5     7    1
    7     5     8    1
    8     8     9    1
    9     8    10    1
   10     8    11    1
   11    11    12    1
   12    11    13    1
   13    11    14    1
   14    14    15    1
   15    14    16    1
   16    14    17    1
@<TRIPOS>SUBSTRUCTURE
       1 MOL1            1 RESIDUE      1      MOL     
@<SCITEGIC>MOL_PROPERTY
VConf Rank
SciTegic.value.IntegerValue
741

@<SCITEGIC>MOL_PROPERTY
Conf_Id
SciTegic.value.IntegerValue
19

@<SCITEGIC>MOL_PROPERTY
Delta U+W
SciTegic.value.DoubleValue
2.662

@<SCITEGIC>MOL_PROPERTY
U+W
SciTegic.value.DoubleValue
-13.203

@<SCITEGIC>MOL_PROPERTY
Grad RMS
SciTegic.value.DoubleValue
0.000000

@<SCITEGIC>MOL_PROPERTY
U
SciTegic.value.DoubleValue
47.423

@<SCITEGIC>MOL_PROPERTY
W
SciTegic.value.DoubleValue
-60.626

@<SCITEGIC>MOL_PROPERTY
W(PB)
SciTegic.value.DoubleValue
-62.328

@<SCITEGIC>MOL_PROPERTY
W(SA)
SciTegic.value.DoubleValue
1.702

@<SCITEGIC>MOL_PROPERTY
Valence
SciTegic.value.DoubleValue
2.414

@<SCITEGIC>MOL_PROPERTY
Coulomb
SciTegic.value.DoubleValue
44.831

@<SCITEGIC>MOL_PROPERTY
VdW
SciTegic.value.DoubleValue
0.178

@<SCITEGIC>MOL_PROPERTY
VdW6
SciTegic.value.DoubleValue
-3.743

@<SCITEGIC>MOL_PROPERTY
VdW12
SciTegic.value.DoubleValue
3.921

@<SCITEGIC>MOL_PROPERTY
Bond
SciTegic.value.DoubleValue
0.138

@<SCITEGIC>MOL_PROPERTY
Angle
SciTegic.value.DoubleValue
0.941

@<SCITEGIC>MOL_PROPERTY
Pdih
SciTegic.value.DoubleValue
1.335

@<SCITEGIC>MOL_PROPERTY
Idih
SciTegic.value.DoubleValue
0.000

@<SCITEGIC>MOL_PROPERTY
Tether
SciTegic.value.DoubleValue
0.000

@<TRIPOS>MOLECULE
guest-1_confgen4.mol2 : confsearch ligand conformer 742
          17          16           1
SMALL
USER_CHARGES
 
@<TRIPOS>ATOM
       1    N1      19.538985   18.920755   23.422085 N.4        1 MOL1        -0.5891
       2    H1      19.045329   19.311012   24.231299 H          1 MOL1         0.3726
       3    H2      20.215686   18.242907   23.785507 H          1 MOL1         0.3726
       4    H3      18.852569   18.396319   22.873775 H          1 MOL1         0.3726
       5    C1      20.211209   20.000895   22.596584 C.3        1 MOL1         0.0314
       6    H4      20.924718   20.507109   23.252472 H          1 MOL1         0.0999
       7    H5      19.454365   20.729689   22.294344 H          1 MOL1         0.0999
       8    C2      20.957369   19.476004   21.351857 C.3        1 MOL1        -0.1308
       9    H6      21.695373   20.234637   21.059159 H          1 MOL1         0.1025
      10    H7      21.534588   18.578477   21.610686 H          1 MOL1         0.1025
      11    C3      20.048490   19.197985   20.127378 C.3        1 MOL1        -0.1243
      12    H8      20.688788   18.933157   19.274223 H          1 MOL1         0.1025
      13    H9      19.524428   20.120107   19.839154 H          1 MOL1         0.1025
      14    C4      19.018594   18.065302   20.340036 C.3        1 MOL1        -0.2258
      15    H10     19.500043   17.155020   20.720491 H          1 MOL1         0.1036
      16    H11     18.530517   17.811522   19.390018 H          1 MOL1         0.1036
      17    H12     18.228160   18.365948   21.037535 H          1 MOL1         0.1036
@<TRIPOS>BOND
    1     1     2    1
    2     1     3    1
    3     1     4    1
    4     1     5    1
    5     5     6    1
    6     5     7    1
    7     5     8    1
    8     8     9    1
    9     8    10    1
   10     8    11    1
   11    11    12    1
   12    11    13    1
   13    11    14    1
   14    14    15    1
   15    14    16    1
   16    14    17    1
@<TRIPOS>SUBSTRUCTURE
       1 MOL1            1 RESIDUE      1      MOL     
@<SCITEGIC>MOL_PROPERTY
VConf Rank
SciTegic.value.IntegerValue
742

@<SCITEGIC>MOL_PROPERTY
Conf_Id
SciTegic.value.IntegerValue
44

@<SCITEGIC>MOL_PROPERTY
Delta U+W
SciTegic.value.DoubleValue
2.712

@<SCITEGIC>MOL_PROPERTY
U+W
SciTegic.value.DoubleValue
-13.153

@<SCITEGIC>MOL_PROPERTY
Grad RMS
SciTegic.value.DoubleValue
0.000000

@<SCITEGIC>MOL_PROPERTY
U
SciTegic.value.DoubleValue
47.423

@<SCITEGIC>MOL_PROPERTY
W
SciTegic.value.DoubleValue
-60.576

@<SCITEGIC>MOL_PROPERTY
W(PB)
SciTegic.value.DoubleValue
-62.262

@<SCITEGIC>MOL_PROPERTY
W(SA)
SciTegic.value.DoubleValue
1.687

@<SCITEGIC>MOL_PROPERTY
Valence
SciTegic.value.DoubleValue
2.414

@<SCITEGIC>MOL_PROPERTY
Coulomb
SciTegic.value.DoubleValue
44.831

@<SCITEGIC>MOL_PROPERTY
VdW
SciTegic.value.DoubleValue
0.178

@<SCITEGIC>MOL_PROPERTY
VdW6
SciTegic.value.DoubleValue
-3.743

@<SCITEGIC>MOL_PROPERTY
VdW12
SciTegic.value.DoubleValue
3.922

@<SCITEGIC>MOL_PROPERTY
Bond
SciTegic.value.DoubleValue
0.138

@<SCITEGIC>MOL_PROPERTY
Angle
SciTegic.value.DoubleValue
0.941

@<SCITEGIC>MOL_PROPERTY
Pdih
SciTegic.value.DoubleValue
1.335

@<SCITEGIC>MOL_PROPERTY
Idih
SciTegic.value.DoubleValue
0.000

@<SCITEGIC>MOL_PROPERTY
Tether
SciTegic.value.DoubleValue
0.000

@<TRIPOS>MOLECULE
guest-1_confgen4.mol2 : confsearch ligand conformer 743
          17          16           1
SMALL
USER_CHARGES
 
@<TRIPOS>ATOM
       1    N1      18.966383   17.350188   21.166056 N.4        1 MOL1        -0.5891
       2    H1      19.833005   17.355338   20.620724 H          1 MOL1         0.3726
       3    H2      18.195371   17.510630   20.510939 H          1 MOL1         0.3726
       4    H3      18.850708   16.400918   21.535072 H          1 MOL1         0.3726
       5    C1      18.993057   18.386309   22.273124 C.3        1 MOL1         0.0314
       6    H4      19.816325   18.140128   22.948720 H          1 MOL1         0.0999
       7    H5      18.058350   18.298793   22.833660 H          1 MOL1         0.0999
       8    C2      19.151113   19.834898   21.766638 C.3        1 MOL1        -0.1308
       9    H6      18.298682   20.086220   21.121696 H          1 MOL1         0.1025
      10    H7      19.095014   20.515677   22.626403 H          1 MOL1         0.1025
      11    C3      20.470968   20.093054   20.997941 C.3        1 MOL1        -0.1243
      12    H8      20.487786   21.140546   20.665703 H          1 MOL1         0.1025
      13    H9      20.500680   19.484754   20.083752 H          1 MOL1         0.1025
      14    C4      21.731440   19.815875   21.848929 C.3        1 MOL1        -0.2258
      15    H10     21.725507   20.414059   22.769368 H          1 MOL1         0.1036
      16    H11     22.639072   20.073893   21.288037 H          1 MOL1         0.1036
      17    H12     21.805182   18.757485   22.128787 H          1 MOL1         0.1036
@<TRIPOS>BOND
    1     1     2    1
    2     1     3    1
    3     1     4    1
    4     1     5    1
    5     5     6    1
    6     5     7    1
    7     5     8    1
    8     8     9    1
    9     8    10    1
   10     8    11    1
   11    11    12    1
   12    11    13    1
   13    11    14    1
   14    14    15    1
   15    14    16    1
   16    14    17    1
@<TRIPOS>SUBSTRUCTURE
       1 MOL1            1 RESIDUE      1      MOL     
@<SCITEGIC>MOL_PROPERTY
VConf Rank
SciTegic.value.IntegerValue
743

@<SCITEGIC>MOL_PROPERTY
Conf_Id
SciTegic.value.IntegerValue
1

@<SCITEGIC>MOL_PROPERTY
Delta U+W
SciTegic.value.DoubleValue
0.685

@<SCITEGIC>MOL_PROPERTY
U+W
SciTegic.value.DoubleValue
-15.179

@<SCITEGIC>MOL_PROPERTY
Grad RMS
SciTegic.value.DoubleValue
0.000000

@<SCITEGIC>MOL_PROPERTY
U
SciTegic.value.DoubleValue
45.697

@<SCITEGIC>MOL_PROPERTY
W
SciTegic.value.DoubleValue
-60.876

@<SCITEGIC>MOL_PROPERTY
W(PB)
SciTegic.value.DoubleValue
-62.586

@<SCITEGIC>MOL_PROPERTY
W(SA)
SciTegic.value.DoubleValue
1.710

@<SCITEGIC>MOL_PROPERTY
Valence
SciTegic.value.DoubleValue
1.263

@<SCITEGIC>MOL_PROPERTY
Coulomb
SciTegic.value.DoubleValue
44.179

@<SCITEGIC>MOL_PROPERTY
VdW
SciTegic.value.DoubleValue
0.255

@<SCITEGIC>MOL_PROPERTY
VdW6
SciTegic.value.DoubleValue
-3.552

@<SCITEGIC>MOL_PROPERTY
VdW12
SciTegic.value.DoubleValue
3.807

@<SCITEGIC>MOL_PROPERTY
Bond
SciTegic.value.DoubleValue
0.125

@<SCITEGIC>MOL_PROPERTY
Angle
SciTegic.value.DoubleValue
0.616

@<SCITEGIC>MOL_PROPERTY
Pdih
SciTegic.value.DoubleValue
0.521

@<SCITEGIC>MOL_PROPERTY
Idih
SciTegic.value.DoubleValue
0.000

@<SCITEGIC>MOL_PROPERTY
Tether
SciTegic.value.DoubleValue
0.000

@<TRIPOS>MOLECULE
guest-1_confgen4.mol2 : confsearch ligand conformer 744
          17          16           1
SMALL
USER_CHARGES
 
@<TRIPOS>ATOM
       1    N1      21.302044   18.181450   20.445545 N.4        1 MOL1        -0.5891
       2    H1      21.492730   17.217370   20.734623 H          1 MOL1         0.3726
       3    H2      21.794760   18.796560   21.099242 H          1 MOL1         0.3726
       4    H3      21.739415   18.308856   19.527318 H          1 MOL1         0.3726
       5    C1      19.815122   18.477261   20.407939 C.3        1 MOL1         0.0314
       6    H4      19.362207   17.813396   19.666528 H          1 MOL1         0.0999
       7    H5      19.682364   19.506723   20.065318 H          1 MOL1         0.0999
       8    C2      19.107468   18.285347   21.765258 C.3        1 MOL1        -0.1308
       9    H6      18.031704   18.457633   21.627956 H          1 MOL1         0.1025
      10    H7      19.211500   17.238859   22.081149 H          1 MOL1         0.1025
      11    C3      19.633100   19.215528   22.886879 C.3        1 MOL1        -0.1243
      12    H8      20.687118   18.991492   23.100205 H          1 MOL1         0.1025
      13    H9      19.083449   18.998029   23.813422 H          1 MOL1         0.1025
      14    C4      19.477474   20.716509   22.551271 C.3        1 MOL1        -0.2258
      15    H10     19.800983   21.335886   23.397842 H          1 MOL1         0.1036
      16    H11     18.430564   20.965992   22.334926 H          1 MOL1         0.1036
      17    H12     20.083984   21.001147   21.682320 H          1 MOL1         0.1036
@<TRIPOS>BOND
    1     1     2    1
    2     1     3    1
    3     1     4    1
    4     1     5    1
    5     5     6    1
    6     5     7    1
    7     5     8    1
    8     8     9    1
    9     8    10    1
   10     8    11    1
   11    11    12    1
   12    11    13    1
   13    11    14    1
   14    14    15    1
   15    14    16    1
   16    14    17    1
@<TRIPOS>SUBSTRUCTURE
       1 MOL1            1 RESIDUE      1      MOL     
@<SCITEGIC>MOL_PROPERTY
VConf Rank
SciTegic.value.IntegerValue
744

@<SCITEGIC>MOL_PROPERTY
Conf_Id
SciTegic.value.IntegerValue
43

@<SCITEGIC>MOL_PROPERTY
Delta U+W
SciTegic.value.DoubleValue
0.642

@<SCITEGIC>MOL_PROPERTY
U+W
SciTegic.value.DoubleValue
-15.222

@<SCITEGIC>MOL_PROPERTY
Grad RMS
SciTegic.value.DoubleValue
0.000000

@<SCITEGIC>MOL_PROPERTY
U
SciTegic.value.DoubleValue
45.697

@<SCITEGIC>MOL_PROPERTY
W
SciTegic.value.DoubleValue
-60.919

@<SCITEGIC>MOL_PROPERTY
W(PB)
SciTegic.value.DoubleValue
-62.631

@<SCITEGIC>MOL_PROPERTY
W(SA)
SciTegic.value.DoubleValue
1.712

@<SCITEGIC>MOL_PROPERTY
Valence
SciTegic.value.DoubleValue
1.262

@<SCITEGIC>MOL_PROPERTY
Coulomb
SciTegic.value.DoubleValue
44.179

@<SCITEGIC>MOL_PROPERTY
VdW
SciTegic.value.DoubleValue
0.255

@<SCITEGIC>MOL_PROPERTY
VdW6
SciTegic.value.DoubleValue
-3.552

@<SCITEGIC>MOL_PROPERTY
VdW12
SciTegic.value.DoubleValue
3.807

@<SCITEGIC>MOL_PROPERTY
Bond
SciTegic.value.DoubleValue
0.125

@<SCITEGIC>MOL_PROPERTY
Angle
SciTegic.value.DoubleValue
0.616

@<SCITEGIC>MOL_PROPERTY
Pdih
SciTegic.value.DoubleValue
0.521

@<SCITEGIC>MOL_PROPERTY
Idih
SciTegic.value.DoubleValue
0.000

@<SCITEGIC>MOL_PROPERTY
Tether
SciTegic.value.DoubleValue
0.000

@<TRIPOS>MOLECULE
guest-1_confgen4.mol2 : confsearch ligand conformer 745
          17          16           1
SMALL
USER_CHARGES
 
@<TRIPOS>ATOM
       1    N1      22.215128   18.306994   22.560260 N.4        1 MOL1        -0.5891
       2    H1      22.772945   19.097058   22.222126 H          1 MOL1         0.3726
       3    H2      22.378153   17.526552   21.916808 H          1 MOL1         0.3726
       4    H3      22.609565   18.031840   23.465588 H          1 MOL1         0.3726
       5    C1      20.744083   18.655643   22.669003 C.3        1 MOL1         0.0314
       6    H4      20.642742   19.470421   23.391077 H          1 MOL1         0.0999
       7    H5      20.218213   17.781627   23.062806 H          1 MOL1         0.0999
       8    C2      20.118795   19.073929   21.325755 C.3        1 MOL1        -0.1308
       9    H6      20.659247   19.942254   20.925864 H          1 MOL1         0.1025
      10    H7      20.236045   18.259226   20.598774 H          1 MOL1         0.1025
      11    C3      18.621620   19.420269   21.480794 C.3        1 MOL1        -0.1243
      12    H8      18.503347   20.233490   22.210868 H          1 MOL1         0.1025
      13    H9      18.080646   18.552505   21.884105 H          1 MOL1         0.1025
      14    C4      17.987560   19.840878   20.137287 C.3        1 MOL1        -0.2258
      15    H10     16.924857   20.082588   20.268762 H          1 MOL1         0.1036
      16    H11     18.059688   19.034075   19.396292 H          1 MOL1         0.1036
      17    H12     18.485774   20.728297   19.725611 H          1 MOL1         0.1036
@<TRIPOS>BOND
    1     1     2    1
    2     1     3    1
    3     1     4    1
    4     1     5    1
    5     5     6    1
    6     5     7    1
    7     5     8    1
    8     8     9    1
    9     8    10    1
   10     8    11    1
   11    11    12    1
   12    11    13    1
   13    11    14    1
   14    14    15    1
   15    14    16    1
   16    14    17    1
@<TRIPOS>SUBSTRUCTURE
       1 MOL1            1 RESIDUE      1      MOL     
@<SCITEGIC>MOL_PROPERTY
VConf Rank
SciTegic.value.IntegerValue
745

@<SCITEGIC>MOL_PROPERTY
Conf_Id
SciTegic.value.IntegerValue
7

@<SCITEGIC>MOL_PROPERTY
Delta U+W
SciTegic.value.DoubleValue
0.000

@<SCITEGIC>MOL_PROPERTY
U+W
SciTegic.value.DoubleValue
-15.865

@<SCITEGIC>MOL_PROPERTY
Grad RMS
SciTegic.value.DoubleValue
0.000000

@<SCITEGIC>MOL_PROPERTY
U
SciTegic.value.DoubleValue
44.664

@<SCITEGIC>MOL_PROPERTY
W
SciTegic.value.DoubleValue
-60.529

@<SCITEGIC>MOL_PROPERTY
W(PB)
SciTegic.value.DoubleValue
-62.309

@<SCITEGIC>MOL_PROPERTY
W(SA)
SciTegic.value.DoubleValue
1.780

@<SCITEGIC>MOL_PROPERTY
Valence
SciTegic.value.DoubleValue
0.872

@<SCITEGIC>MOL_PROPERTY
Coulomb
SciTegic.value.DoubleValue
43.648

@<SCITEGIC>MOL_PROPERTY
VdW
SciTegic.value.DoubleValue
0.144

@<SCITEGIC>MOL_PROPERTY
VdW6
SciTegic.value.DoubleValue
-2.370

@<SCITEGIC>MOL_PROPERTY
VdW12
SciTegic.value.DoubleValue
2.515

@<SCITEGIC>MOL_PROPERTY
Bond
SciTegic.value.DoubleValue
0.080

@<SCITEGIC>MOL_PROPERTY
Angle
SciTegic.value.DoubleValue
0.376

@<SCITEGIC>MOL_PROPERTY
Pdih
SciTegic.value.DoubleValue
0.416

@<SCITEGIC>MOL_PROPERTY
Idih
SciTegic.value.DoubleValue
0.000

@<SCITEGIC>MOL_PROPERTY
Tether
SciTegic.value.DoubleValue
0.000

@<TRIPOS>MOLECULE
guest-1_confgen4.mol2 : confsearch ligand conformer 746
          17          16           1
SMALL
USER_CHARGES
 
@<TRIPOS>ATOM
       1    N1      21.522499   20.738516   22.388052 N.4        1 MOL1        -0.5891
       2    H1      21.033293   21.422342   22.973464 H          1 MOL1         0.3726
       3    H2      21.703787   21.189715   21.486276 H          1 MOL1         0.3726
       4    H3      22.434749   20.572969   22.825361 H          1 MOL1         0.3726
       5    C1      20.731055   19.455332   22.231811 C.3        1 MOL1         0.0314
       6    H4      20.601622   19.015150   23.224229 H          1 MOL1         0.0999
       7    H5      21.324877   18.766186   21.625764 H          1 MOL1         0.0999
       8    C2      19.352933   19.668432   21.576580 C.3        1 MOL1        -0.1308
       9    H6      18.779966   20.392421   22.171076 H          1 MOL1         0.1025
      10    H7      19.482871   20.112090   20.580501 H          1 MOL1         0.1025
      11    C3      18.539558   18.358273   21.458651 C.3        1 MOL1        -0.1243
      12    H8      17.542306   18.591909   21.060048 H          1 MOL1         0.1025
      13    H9      18.379957   17.930203   22.458384 H          1 MOL1         0.1025
      14    C4      19.213971   17.308438   20.545978 C.3        1 MOL1        -0.2258
      15    H10     19.390398   17.713595   19.541066 H          1 MOL1         0.1036
      16    H11     18.575236   16.421757   20.441956 H          1 MOL1         0.1036
      17    H12     20.176302   16.976445   20.955600 H          1 MOL1         0.1036
@<TRIPOS>BOND
    1     1     2    1
    2     1     3    1
    3     1     4    1
    4     1     5    1
    5     5     6    1
    6     5     7    1
    7     5     8    1
    8     8     9    1
    9     8    10    1
   10     8    11    1
   11    11    12    1
   12    11    13    1
   13    11    14    1
   14    14    15    1
   15    14    16    1
   16    14    17    1
@<TRIPOS>SUBSTRUCTURE
       1 MOL1            1 RESIDUE      1      MOL     
@<SCITEGIC>MOL_PROPERTY
VConf Rank
SciTegic.value.IntegerValue
746

@<SCITEGIC>MOL_PROPERTY
Conf_Id
SciTegic.value.IntegerValue
36

@<SCITEGIC>MOL_PROPERTY
Delta U+W
SciTegic.value.DoubleValue
0.275

@<SCITEGIC>MOL_PROPERTY
U+W
SciTegic.value.DoubleValue
-15.590

@<SCITEGIC>MOL_PROPERTY
Grad RMS
SciTegic.value.DoubleValue
0.000000

@<SCITEGIC>MOL_PROPERTY
U
SciTegic.value.DoubleValue
45.174

@<SCITEGIC>MOL_PROPERTY
W
SciTegic.value.DoubleValue
-60.765

@<SCITEGIC>MOL_PROPERTY
W(PB)
SciTegic.value.DoubleValue
-62.518

@<SCITEGIC>MOL_PROPERTY
W(SA)
SciTegic.value.DoubleValue
1.754

@<SCITEGIC>MOL_PROPERTY
Valence
SciTegic.value.DoubleValue
1.161

@<SCITEGIC>MOL_PROPERTY
Coulomb
SciTegic.value.DoubleValue
43.789

@<SCITEGIC>MOL_PROPERTY
VdW
SciTegic.value.DoubleValue
0.224

@<SCITEGIC>MOL_PROPERTY
VdW6
SciTegic.value.DoubleValue
-2.897

@<SCITEGIC>MOL_PROPERTY
VdW12
SciTegic.value.DoubleValue
3.121

@<SCITEGIC>MOL_PROPERTY
Bond
SciTegic.value.DoubleValue
0.100

@<SCITEGIC>MOL_PROPERTY
Angle
SciTegic.value.DoubleValue
0.500

@<SCITEGIC>MOL_PROPERTY
Pdih
SciTegic.value.DoubleValue
0.561

@<SCITEGIC>MOL_PROPERTY
Idih
SciTegic.value.DoubleValue
0.000

@<SCITEGIC>MOL_PROPERTY
Tether
SciTegic.value.DoubleValue
0.000

@<TRIPOS>MOLECULE
guest-1_confgen4.mol2 : confsearch ligand conformer 747
          17          16           1
SMALL
USER_CHARGES
 
@<TRIPOS>ATOM
       1    N1      20.139173   20.539014   20.597960 N.4        1 MOL1        -0.5891
       2    H1      19.157716   20.374989   20.836041 H          1 MOL1         0.3726
       3    H2      20.269051   20.234279   19.628554 H          1 MOL1         0.3726
       4    H3      20.288802   21.553015   20.613365 H          1 MOL1         0.3726
       5    C1      21.076184   19.816006   21.546274 C.3        1 MOL1         0.0314
       6    H4      20.941900   20.228222   22.549942 H          1 MOL1         0.0999
       7    H5      22.095803   20.041474   21.222117 H          1 MOL1         0.0999
       8    C2      20.886624   18.284834   21.580804 C.3        1 MOL1        -0.1308
       9    H6      20.772638   17.897366   20.559724 H          1 MOL1         0.1025
      10    H7      21.812983   17.841409   21.969494 H          1 MOL1         0.1025
      11    C3      19.715715   17.802128   22.474489 C.3        1 MOL1        -0.1243
      12    H8      19.874114   18.143168   23.507263 H          1 MOL1         0.1025
      13    H9      19.737909   16.703856   22.510492 H          1 MOL1         0.1025
      14    C4      18.317228   18.250560   21.992799 C.3        1 MOL1        -0.2258
      15    H10     18.168942   19.327377   22.134755 H          1 MOL1         0.1036
      16    H11     17.534547   17.739002   22.568016 H          1 MOL1         0.1036
      17    H12     18.163870   18.008018   20.933173 H          1 MOL1         0.1036
@<TRIPOS>BOND
    1     1     2    1
    2     1     3    1
    3     1     4    1
    4     1     5    1
    5     5     6    1
    6     5     7    1
    7     5     8    1
    8     8     9    1
    9     8    10    1
   10     8    11    1
   11    11    12    1
   12    11    13    1
   13    11    14    1
   14    14    15    1
   15    14    16    1
   16    14    17    1
@<TRIPOS>SUBSTRUCTURE
       1 MOL1            1 RESIDUE      1      MOL     
@<SCITEGIC>MOL_PROPERTY
VConf Rank
SciTegic.value.IntegerValue
747

@<SCITEGIC>MOL_PROPERTY
Conf_Id
SciTegic.value.IntegerValue
19

@<SCITEGIC>MOL_PROPERTY
Delta U+W
SciTegic.value.DoubleValue
2.662

@<SCITEGIC>MOL_PROPERTY
U+W
SciTegic.value.DoubleValue
-13.203

@<SCITEGIC>MOL_PROPERTY
Grad RMS
SciTegic.value.DoubleValue
0.000000

@<SCITEGIC>MOL_PROPERTY
U
SciTegic.value.DoubleValue
47.423

@<SCITEGIC>MOL_PROPERTY
W
SciTegic.value.DoubleValue
-60.626

@<SCITEGIC>MOL_PROPERTY
W(PB)
SciTegic.value.DoubleValue
-62.328

@<SCITEGIC>MOL_PROPERTY
W(SA)
SciTegic.value.DoubleValue
1.702

@<SCITEGIC>MOL_PROPERTY
Valence
SciTegic.value.DoubleValue
2.414

@<SCITEGIC>MOL_PROPERTY
Coulomb
SciTegic.value.DoubleValue
44.831

@<SCITEGIC>MOL_PROPERTY
VdW
SciTegic.value.DoubleValue
0.178

@<SCITEGIC>MOL_PROPERTY
VdW6
SciTegic.value.DoubleValue
-3.743

@<SCITEGIC>MOL_PROPERTY
VdW12
SciTegic.value.DoubleValue
3.921

@<SCITEGIC>MOL_PROPERTY
Bond
SciTegic.value.DoubleValue
0.138

@<SCITEGIC>MOL_PROPERTY
Angle
SciTegic.value.DoubleValue
0.941

@<SCITEGIC>MOL_PROPERTY
Pdih
SciTegic.value.DoubleValue
1.335

@<SCITEGIC>MOL_PROPERTY
Idih
SciTegic.value.DoubleValue
0.000

@<SCITEGIC>MOL_PROPERTY
Tether
SciTegic.value.DoubleValue
0.000

@<TRIPOS>MOLECULE
guest-1_confgen4.mol2 : confsearch ligand conformer 748
          17          16           1
SMALL
USER_CHARGES
 
@<TRIPOS>ATOM
       1    N1      21.229505   18.706631   20.371820 N.4        1 MOL1        -0.5891
       2    H1      21.526391   18.753753   19.391789 H          1 MOL1         0.3726
       3    H2      21.907967   18.113943   20.859562 H          1 MOL1         0.3726
       4    H3      21.319194   19.648981   20.760119 H          1 MOL1         0.3726
       5    C1      19.815867   18.174566   20.508103 C.3        1 MOL1         0.0314
       6    H4      19.808621   17.171090   20.073916 H          1 MOL1         0.0999
       7    H5      19.148102   18.804398   19.914215 H          1 MOL1         0.0999
       8    C2      19.304642   18.096932   21.962144 C.3        1 MOL1        -0.1308
       9    H6      18.477141   17.375535   21.988108 H          1 MOL1         0.1025
      10    H7      20.085767   17.682717   22.613296 H          1 MOL1         0.1025
      11    C3      18.783518   19.440600   22.532834 C.3        1 MOL1        -0.1243
      12    H8      18.350408   19.250423   23.524922 H          1 MOL1         0.1025
      13    H9      17.959509   19.812780   21.907923 H          1 MOL1         0.1025
      14    C4      19.862851   20.538465   22.669269 C.3        1 MOL1        -0.2258
      15    H10     20.743550   20.166758   23.209041 H          1 MOL1         0.1036
      16    H11     19.465818   21.394805   23.229807 H          1 MOL1         0.1036
      17    H12     20.180360   20.914469   21.689734 H          1 MOL1         0.1036
@<TRIPOS>BOND
    1     1     2    1
    2     1     3    1
    3     1     4    1
    4     1     5    1
    5     5     6    1
    6     5     7    1
    7     5     8    1
    8     8     9    1
    9     8    10    1
   10     8    11    1
   11    11    12    1
   12    11    13    1
   13    11    14    1
   14    14    15    1
   15    14    16    1
   16    14    17    1
@<TRIPOS>SUBSTRUCTURE
       1 MOL1            1 RESIDUE      1      MOL     
@<SCITEGIC>MOL_PROPERTY
VConf Rank
SciTegic.value.IntegerValue
748

@<SCITEGIC>MOL_PROPERTY
Conf_Id
SciTegic.value.IntegerValue
44

@<SCITEGIC>MOL_PROPERTY
Delta U+W
SciTegic.value.DoubleValue
2.712

@<SCITEGIC>MOL_PROPERTY
U+W
SciTegic.value.DoubleValue
-13.153

@<SCITEGIC>MOL_PROPERTY
Grad RMS
SciTegic.value.DoubleValue
0.000000

@<SCITEGIC>MOL_PROPERTY
U
SciTegic.value.DoubleValue
47.423

@<SCITEGIC>MOL_PROPERTY
W
SciTegic.value.DoubleValue
-60.576

@<SCITEGIC>MOL_PROPERTY
W(PB)
SciTegic.value.DoubleValue
-62.262

@<SCITEGIC>MOL_PROPERTY
W(SA)
SciTegic.value.DoubleValue
1.687

@<SCITEGIC>MOL_PROPERTY
Valence
SciTegic.value.DoubleValue
2.414

@<SCITEGIC>MOL_PROPERTY
Coulomb
SciTegic.value.DoubleValue
44.831

@<SCITEGIC>MOL_PROPERTY
VdW
SciTegic.value.DoubleValue
0.178

@<SCITEGIC>MOL_PROPERTY
VdW6
SciTegic.value.DoubleValue
-3.743

@<SCITEGIC>MOL_PROPERTY
VdW12
SciTegic.value.DoubleValue
3.922

@<SCITEGIC>MOL_PROPERTY
Bond
SciTegic.value.DoubleValue
0.138

@<SCITEGIC>MOL_PROPERTY
Angle
SciTegic.value.DoubleValue
0.941

@<SCITEGIC>MOL_PROPERTY
Pdih
SciTegic.value.DoubleValue
1.335

@<SCITEGIC>MOL_PROPERTY
Idih
SciTegic.value.DoubleValue
0.000

@<SCITEGIC>MOL_PROPERTY
Tether
SciTegic.value.DoubleValue
0.000

@<TRIPOS>MOLECULE
guest-1_confgen4.mol2 : confsearch ligand conformer 749
          17          16           1
SMALL
USER_CHARGES
 
@<TRIPOS>ATOM
       1    N1      21.416197   17.758363   21.346077 N.4        1 MOL1        -0.5891
       2    H1      21.407814   18.376785   20.530031 H          1 MOL1         0.3726
       3    H2      21.079265   16.842251   21.035278 H          1 MOL1         0.3726
       4    H3      22.396544   17.637664   21.619973 H          1 MOL1         0.3726
       5    C1      20.577867   18.314330   22.480960 C.3        1 MOL1         0.0314
       6    H4      21.007358   19.273335   22.782045 H          1 MOL1         0.0999
       7    H5      20.663007   17.625810   23.326081 H          1 MOL1         0.0999
       8    C2      19.089120   18.500758   22.122074 C.3        1 MOL1        -0.1308
       9    H6      18.656658   17.525935   21.860454 H          1 MOL1         0.1025
      10    H7      18.552335   18.843023   23.016792 H          1 MOL1         0.1025
      11    C3      18.840335   19.500583   20.965349 C.3        1 MOL1        -0.1243
      12    H8      17.759810   19.556569   20.772381 H          1 MOL1         0.1025
      13    H9      19.294665   19.125869   20.038081 H          1 MOL1         0.1025
      14    C4      19.370614   20.920793   21.268015 C.3        1 MOL1        -0.2258
      15    H10     18.929522   21.318228   22.191352 H          1 MOL1         0.1036
      16    H11     19.115298   21.609141   20.451952 H          1 MOL1         0.1036
      17    H12     20.462234   20.929326   21.378655 H          1 MOL1         0.1036
@<TRIPOS>BOND
    1     1     2    1
    2     1     3    1
    3     1     4    1
    4     1     5    1
    5     5     6    1
    6     5     7    1
    7     5     8    1
    8     8     9    1
    9     8    10    1
   10     8    11    1
   11    11    12    1
   12    11    13    1
   13    11    14    1
   14    14    15    1
   15    14    16    1
   16    14    17    1
@<TRIPOS>SUBSTRUCTURE
       1 MOL1            1 RESIDUE      1      MOL     
@<SCITEGIC>MOL_PROPERTY
VConf Rank
SciTegic.value.IntegerValue
749

@<SCITEGIC>MOL_PROPERTY
Conf_Id
SciTegic.value.IntegerValue
1

@<SCITEGIC>MOL_PROPERTY
Delta U+W
SciTegic.value.DoubleValue
0.685

@<SCITEGIC>MOL_PROPERTY
U+W
SciTegic.value.DoubleValue
-15.179

@<SCITEGIC>MOL_PROPERTY
Grad RMS
SciTegic.value.DoubleValue
0.000000

@<SCITEGIC>MOL_PROPERTY
U
SciTegic.value.DoubleValue
45.697

@<SCITEGIC>MOL_PROPERTY
W
SciTegic.value.DoubleValue
-60.876

@<SCITEGIC>MOL_PROPERTY
W(PB)
SciTegic.value.DoubleValue
-62.586

@<SCITEGIC>MOL_PROPERTY
W(SA)
SciTegic.value.DoubleValue
1.710

@<SCITEGIC>MOL_PROPERTY
Valence
SciTegic.value.DoubleValue
1.263

@<SCITEGIC>MOL_PROPERTY
Coulomb
SciTegic.value.DoubleValue
44.179

@<SCITEGIC>MOL_PROPERTY
VdW
SciTegic.value.DoubleValue
0.255

@<SCITEGIC>MOL_PROPERTY
VdW6
SciTegic.value.DoubleValue
-3.552

@<SCITEGIC>MOL_PROPERTY
VdW12
SciTegic.value.DoubleValue
3.807

@<SCITEGIC>MOL_PROPERTY
Bond
SciTegic.value.DoubleValue
0.125

@<SCITEGIC>MOL_PROPERTY
Angle
SciTegic.value.DoubleValue
0.616

@<SCITEGIC>MOL_PROPERTY
Pdih
SciTegic.value.DoubleValue
0.521

@<SCITEGIC>MOL_PROPERTY
Idih
SciTegic.value.DoubleValue
0.000

@<SCITEGIC>MOL_PROPERTY
Tether
SciTegic.value.DoubleValue
0.000

@<TRIPOS>MOLECULE
guest-1_confgen4.mol2 : confsearch ligand conformer 750
          17          16           1
SMALL
USER_CHARGES
 
@<TRIPOS>ATOM
       1    N1      20.163115   19.594238   19.709695 N.4        1 MOL1        -0.5891
       2    H1      19.262095   19.744982   19.246211 H          1 MOL1         0.3726
       3    H2      20.320509   18.583047   19.743886 H          1 MOL1         0.3726
       4    H3      20.883166   19.988545   19.095924 H          1 MOL1         0.3726
       5    C1      20.198902   20.215462   21.092684 C.3        1 MOL1         0.0314
       6    H4      20.062357   21.294104   20.976819 H          1 MOL1         0.0999
       7    H5      21.191988   20.044309   21.516112 H          1 MOL1         0.0999
       8    C2      19.122748   19.664456   22.050914 C.3        1 MOL1        -0.1308
       9    H6      19.182696   20.214006   22.999705 H          1 MOL1         0.1025
      10    H7      18.128320   19.877347   21.636742 H          1 MOL1         0.1025
      11    C3      19.247922   18.146436   22.332878 C.3        1 MOL1        -0.1243
      12    H8      19.098262   17.576583   21.405773 H          1 MOL1         0.1025
      13    H9      18.435895   17.844057   23.008958 H          1 MOL1         0.1025
      14    C4      20.602133   17.758487   22.969594 C.3        1 MOL1        -0.2258
      15    H10     20.621189   16.687958   23.211611 H          1 MOL1         0.1036
      16    H11     20.774564   18.315003   23.899983 H          1 MOL1         0.1036
      17    H12     21.440125   17.959020   22.290253 H          1 MOL1         0.1036
@<TRIPOS>BOND
    1     1     2    1
    2     1     3    1
    3     1     4    1
    4     1     5    1
    5     5     6    1
    6     5     7    1
    7     5     8    1
    8     8     9    1
    9     8    10    1
   10     8    11    1
   11    11    12    1
   12    11    13    1
   13    11    14    1
   14    14    15    1
   15    14    16    1
   16    14    17    1
@<TRIPOS>SUBSTRUCTURE
       1 MOL1            1 RESIDUE      1      MOL     
@<SCITEGIC>MOL_PROPERTY
VConf Rank
SciTegic.value.IntegerValue
750

@<SCITEGIC>MOL_PROPERTY
Conf_Id
SciTegic.value.IntegerValue
43

@<SCITEGIC>MOL_PROPERTY
Delta U+W
SciTegic.value.DoubleValue
0.642

@<SCITEGIC>MOL_PROPERTY
U+W
SciTegic.value.DoubleValue
-15.222

@<SCITEGIC>MOL_PROPERTY
Grad RMS
SciTegic.value.DoubleValue
0.000000

@<SCITEGIC>MOL_PROPERTY
U
SciTegic.value.DoubleValue
45.697

@<SCITEGIC>MOL_PROPERTY
W
SciTegic.value.DoubleValue
-60.919

@<SCITEGIC>MOL_PROPERTY
W(PB)
SciTegic.value.DoubleValue
-62.631

@<SCITEGIC>MOL_PROPERTY
W(SA)
SciTegic.value.DoubleValue
1.712

@<SCITEGIC>MOL_PROPERTY
Valence
SciTegic.value.DoubleValue
1.262

@<SCITEGIC>MOL_PROPERTY
Coulomb
SciTegic.value.DoubleValue
44.179

@<SCITEGIC>MOL_PROPERTY
VdW
SciTegic.value.DoubleValue
0.255

@<SCITEGIC>MOL_PROPERTY
VdW6
SciTegic.value.DoubleValue
-3.552

@<SCITEGIC>MOL_PROPERTY
VdW12
SciTegic.value.DoubleValue
3.807

@<SCITEGIC>MOL_PROPERTY
Bond
SciTegic.value.DoubleValue
0.125

@<SCITEGIC>MOL_PROPERTY
Angle
SciTegic.value.DoubleValue
0.616

@<SCITEGIC>MOL_PROPERTY
Pdih
SciTegic.value.DoubleValue
0.521

@<SCITEGIC>MOL_PROPERTY
Idih
SciTegic.value.DoubleValue
0.000

@<SCITEGIC>MOL_PROPERTY
Tether
SciTegic.value.DoubleValue
0.000

@<TRIPOS>MOLECULE
guest-1_confgen4.mol2 : confsearch ligand conformer 751
          17          16           1
SMALL
USER_CHARGES
 
@<TRIPOS>ATOM
       1    N1      20.303809   20.669026   19.632282 N.4        1 MOL1        -0.5891
       2    H1      19.633690   21.386004   19.926525 H          1 MOL1         0.3726
       3    H2      19.841730   20.101788   18.915051 H          1 MOL1         0.3726
       4    H3      21.077219   21.158205   19.170275 H          1 MOL1         0.3726
       5    C1      20.784930   19.828599   20.798285 C.3        1 MOL1         0.0314
       6    H4      21.292023   20.490879   21.505225 H          1 MOL1         0.0999
       7    H5      21.515773   19.109955   20.417570 H          1 MOL1         0.0999
       8    C2      19.647662   19.079057   21.515969 C.3        1 MOL1        -0.1308
       9    H6      18.907957   19.802828   21.883369 H          1 MOL1         0.1025
      10    H7      19.131038   18.426552   20.799501 H          1 MOL1         0.1025
      11    C3      20.180141   18.236296   22.695689 C.3        1 MOL1        -0.1243
      12    H8      20.700279   18.888434   23.411580 H          1 MOL1         0.1025
      13    H9      20.923026   17.513792   22.329035 H          1 MOL1         0.1025
      14    C4      19.044850   17.481524   23.420525 C.3        1 MOL1        -0.2258
      15    H10     19.443490   16.889400   24.254506 H          1 MOL1         0.1036
      16    H11     18.527663   16.794903   22.737681 H          1 MOL1         0.1036
      17    H12     18.303127   18.180404   23.828717 H          1 MOL1         0.1036
@<TRIPOS>BOND
    1     1     2    1
    2     1     3    1
    3     1     4    1
    4     1     5    1
    5     5     6    1
    6     5     7    1
    7     5     8    1
    8     8     9    1
    9     8    10    1
   10     8    11    1
   11    11    12    1
   12    11    13    1
   13    11    14    1
   14    14    15    1
   15    14    16    1
   16    14    17    1
@<TRIPOS>SUBSTRUCTURE
       1 MOL1            1 RESIDUE      1      MOL     
@<SCITEGIC>MOL_PROPERTY
VConf Rank
SciTegic.value.IntegerValue
751

@<SCITEGIC>MOL_PROPERTY
Conf_Id
SciTegic.value.IntegerValue
7

@<SCITEGIC>MOL_PROPERTY
Delta U+W
SciTegic.value.DoubleValue
0.000

@<SCITEGIC>MOL_PROPERTY
U+W
SciTegic.value.DoubleValue
-15.865

@<SCITEGIC>MOL_PROPERTY
Grad RMS
SciTegic.value.DoubleValue
0.000000

@<SCITEGIC>MOL_PROPERTY
U
SciTegic.value.DoubleValue
44.664

@<SCITEGIC>MOL_PROPERTY
W
SciTegic.value.DoubleValue
-60.529

@<SCITEGIC>MOL_PROPERTY
W(PB)
SciTegic.value.DoubleValue
-62.309

@<SCITEGIC>MOL_PROPERTY
W(SA)
SciTegic.value.DoubleValue
1.780

@<SCITEGIC>MOL_PROPERTY
Valence
SciTegic.value.DoubleValue
0.872

@<SCITEGIC>MOL_PROPERTY
Coulomb
SciTegic.value.DoubleValue
43.648

@<SCITEGIC>MOL_PROPERTY
VdW
SciTegic.value.DoubleValue
0.144

@<SCITEGIC>MOL_PROPERTY
VdW6
SciTegic.value.DoubleValue
-2.370

@<SCITEGIC>MOL_PROPERTY
VdW12
SciTegic.value.DoubleValue
2.515

@<SCITEGIC>MOL_PROPERTY
Bond
SciTegic.value.DoubleValue
0.080

@<SCITEGIC>MOL_PROPERTY
Angle
SciTegic.value.DoubleValue
0.376

@<SCITEGIC>MOL_PROPERTY
Pdih
SciTegic.value.DoubleValue
0.416

@<SCITEGIC>MOL_PROPERTY
Idih
SciTegic.value.DoubleValue
0.000

@<SCITEGIC>MOL_PROPERTY
Tether
SciTegic.value.DoubleValue
0.000

@<TRIPOS>MOLECULE
guest-1_confgen4.mol2 : confsearch ligand conformer 752
          17          16           1
SMALL
USER_CHARGES
 
@<TRIPOS>ATOM
       1    N1      19.201801   17.095544   20.481314 N.4        1 MOL1        -0.5891
       2    H1      19.587698   17.099385   19.532253 H          1 MOL1         0.3726
       3    H2      18.208132   17.332419   20.402828 H          1 MOL1         0.3726
       4    H3      19.250284   16.128131   20.816880 H          1 MOL1         0.3726
       5    C1      19.941699   18.048303   21.399005 C.3        1 MOL1         0.0314
       6    H4      20.982688   17.719483   21.459240 H          1 MOL1         0.0999
       7    H5      19.498382   17.967596   22.394894 H          1 MOL1         0.0999
       8    C2      19.888421   19.512896   20.923519 C.3        1 MOL1        -0.1308
       9    H6      20.299142   19.576359   19.907075 H          1 MOL1         0.1025
      10    H7      18.842801   19.842611   20.861418 H          1 MOL1         0.1025
      11    C3      20.679673   20.468846   21.846603 C.3        1 MOL1        -0.1243
      12    H8      20.668695   21.477299   21.409702 H          1 MOL1         0.1025
      13    H9      21.733862   20.159804   21.883496 H          1 MOL1         0.1025
      14    C4      20.107458   20.534756   23.281240 C.3        1 MOL1        -0.2258
      15    H10     19.051831   20.835908   23.272107 H          1 MOL1         0.1036
      16    H11     20.659651   21.268604   23.882536 H          1 MOL1         0.1036
      17    H12     20.183162   19.565828   23.790690 H          1 MOL1         0.1036
@<TRIPOS>BOND
    1     1     2    1
    2     1     3    1
    3     1     4    1
    4     1     5    1
    5     5     6    1
    6     5     7    1
    7     5     8    1
    8     8     9    1
    9     8    10    1
   10     8    11    1
   11    11    12    1
   12    11    13    1
   13    11    14    1
   14    14    15    1
   15    14    16    1
   16    14    17    1
@<TRIPOS>SUBSTRUCTURE
       1 MOL1            1 RESIDUE      1      MOL     
@<SCITEGIC>MOL_PROPERTY
VConf Rank
SciTegic.value.IntegerValue
752

@<SCITEGIC>MOL_PROPERTY
Conf_Id
SciTegic.value.IntegerValue
36

@<SCITEGIC>MOL_PROPERTY
Delta U+W
SciTegic.value.DoubleValue
0.275

@<SCITEGIC>MOL_PROPERTY
U+W
SciTegic.value.DoubleValue
-15.590

@<SCITEGIC>MOL_PROPERTY
Grad RMS
SciTegic.value.DoubleValue
0.000000

@<SCITEGIC>MOL_PROPERTY
U
SciTegic.value.DoubleValue
45.174

@<SCITEGIC>MOL_PROPERTY
W
SciTegic.value.DoubleValue
-60.765

@<SCITEGIC>MOL_PROPERTY
W(PB)
SciTegic.value.DoubleValue
-62.518

@<SCITEGIC>MOL_PROPERTY
W(SA)
SciTegic.value.DoubleValue
1.754

@<SCITEGIC>MOL_PROPERTY
Valence
SciTegic.value.DoubleValue
1.161

@<SCITEGIC>MOL_PROPERTY
Coulomb
SciTegic.value.DoubleValue
43.789

@<SCITEGIC>MOL_PROPERTY
VdW
SciTegic.value.DoubleValue
0.224

@<SCITEGIC>MOL_PROPERTY
VdW6
SciTegic.value.DoubleValue
-2.897

@<SCITEGIC>MOL_PROPERTY
VdW12
SciTegic.value.DoubleValue
3.121

@<SCITEGIC>MOL_PROPERTY
Bond
SciTegic.value.DoubleValue
0.100

@<SCITEGIC>MOL_PROPERTY
Angle
SciTegic.value.DoubleValue
0.500

@<SCITEGIC>MOL_PROPERTY
Pdih
SciTegic.value.DoubleValue
0.561

@<SCITEGIC>MOL_PROPERTY
Idih
SciTegic.value.DoubleValue
0.000

@<SCITEGIC>MOL_PROPERTY
Tether
SciTegic.value.DoubleValue
0.000

@<TRIPOS>MOLECULE
guest-1_confgen4.mol2 : confsearch ligand conformer 753
          17          16           1
SMALL
USER_CHARGES
 
@<TRIPOS>ATOM
       1    N1      21.039842   20.402625   21.112707 N.4        1 MOL1        -0.5891
       2    H1      21.509423   19.777125   21.772319 H          1 MOL1         0.3726
       3    H2      20.712821   21.213294   21.646892 H          1 MOL1         0.3726
       4    H3      21.752704   20.744530   20.460212 H          1 MOL1         0.3726
       5    C1      19.901735   19.706927   20.391080 C.3        1 MOL1         0.0314
       6    H4      20.316877   18.896228   19.786326 H          1 MOL1         0.0999
       7    H5      19.457056   20.440518   19.713111 H          1 MOL1         0.0999
       8    C2      18.803491   19.153486   21.323377 C.3        1 MOL1        -0.1308
       9    H6      18.559150   19.893746   22.096708 H          1 MOL1         0.1025
      10    H7      17.889924   19.028161   20.727109 H          1 MOL1         0.1025
      11    C3      19.140096   17.786721   21.972496 C.3        1 MOL1        -0.1243
      12    H8      19.320638   17.039122   21.187307 H          1 MOL1         0.1025
      13    H9      18.256045   17.439153   22.525342 H          1 MOL1         0.1025
      14    C4      20.344742   17.818308   22.940335 C.3        1 MOL1        -0.2258
      15    H10     21.289773   17.955885   22.402130 H          1 MOL1         0.1036
      16    H11     20.419832   16.868413   23.485511 H          1 MOL1         0.1036
      17    H12     20.239048   18.620475   23.682300 H          1 MOL1         0.1036
@<TRIPOS>BOND
    1     1     2    1
    2     1     3    1
    3     1     4    1
    4     1     5    1
    5     5     6    1
    6     5     7    1
    7     5     8    1
    8     8     9    1
    9     8    10    1
   10     8    11    1
   11    11    12    1
   12    11    13    1
   13    11    14    1
   14    14    15    1
   15    14    16    1
   16    14    17    1
@<TRIPOS>SUBSTRUCTURE
       1 MOL1            1 RESIDUE      1      MOL     
@<SCITEGIC>MOL_PROPERTY
VConf Rank
SciTegic.value.IntegerValue
753

@<SCITEGIC>MOL_PROPERTY
Conf_Id
SciTegic.value.IntegerValue
19

@<SCITEGIC>MOL_PROPERTY
Delta U+W
SciTegic.value.DoubleValue
2.662

@<SCITEGIC>MOL_PROPERTY
U+W
SciTegic.value.DoubleValue
-13.203

@<SCITEGIC>MOL_PROPERTY
Grad RMS
SciTegic.value.DoubleValue
0.000000

@<SCITEGIC>MOL_PROPERTY
U
SciTegic.value.DoubleValue
47.423

@<SCITEGIC>MOL_PROPERTY
W
SciTegic.value.DoubleValue
-60.626

@<SCITEGIC>MOL_PROPERTY
W(PB)
SciTegic.value.DoubleValue
-62.328

@<SCITEGIC>MOL_PROPERTY
W(SA)
SciTegic.value.DoubleValue
1.702

@<SCITEGIC>MOL_PROPERTY
Valence
SciTegic.value.DoubleValue
2.414

@<SCITEGIC>MOL_PROPERTY
Coulomb
SciTegic.value.DoubleValue
44.831

@<SCITEGIC>MOL_PROPERTY
VdW
SciTegic.value.DoubleValue
0.178

@<SCITEGIC>MOL_PROPERTY
VdW6
SciTegic.value.DoubleValue
-3.743

@<SCITEGIC>MOL_PROPERTY
VdW12
SciTegic.value.DoubleValue
3.921

@<SCITEGIC>MOL_PROPERTY
Bond
SciTegic.value.DoubleValue
0.138

@<SCITEGIC>MOL_PROPERTY
Angle
SciTegic.value.DoubleValue
0.941

@<SCITEGIC>MOL_PROPERTY
Pdih
SciTegic.value.DoubleValue
1.335

@<SCITEGIC>MOL_PROPERTY
Idih
SciTegic.value.DoubleValue
0.000

@<SCITEGIC>MOL_PROPERTY
Tether
SciTegic.value.DoubleValue
0.000

@<TRIPOS>MOLECULE
guest-1_confgen4.mol2 : confsearch ligand conformer 754
          17          16           1
SMALL
USER_CHARGES
 
@<TRIPOS>ATOM
       1    N1      18.579932   17.786091   21.230776 N.4        1 MOL1        -0.5891
       2    H1      18.378671   16.795000   21.063273 H          1 MOL1         0.3726
       3    H2      17.736119   18.307851   20.975381 H          1 MOL1         0.3726
       4    H3      18.711393   17.901310   22.238886 H          1 MOL1         0.3726
       5    C1      19.791298   18.255834   20.448489 C.3        1 MOL1         0.0314
       6    H4      19.567890   18.100728   19.389448 H          1 MOL1         0.0999
       7    H5      20.642341   17.621539   20.710592 H          1 MOL1         0.0999
       8    C2      20.155969   19.738398   20.673497 C.3        1 MOL1        -0.1308
       9    H6      20.761855   20.067652   19.818898 H          1 MOL1         0.1025
      10    H7      19.247982   20.355591   20.654469 H          1 MOL1         0.1025
      11    C3      20.966775   20.011847   21.965984 C.3        1 MOL1        -0.1243
      12    H8      21.260853   21.070841   21.972424 H          1 MOL1         0.1025
      13    H9      21.903113   19.436706   21.943508 H          1 MOL1         0.1025
      14    C4      20.204992   19.704658   23.275259 C.3        1 MOL1        -0.2258
      15    H10     19.220485   20.190211   23.286948 H          1 MOL1         0.1036
      16    H11     20.769714   20.076297   24.140204 H          1 MOL1         0.1036
      17    H12     20.069827   18.626292   23.418566 H          1 MOL1         0.1036
@<TRIPOS>BOND
    1     1     2    1
    2     1     3    1
    3     1     4    1
    4     1     5    1
    5     5     6    1
    6     5     7    1
    7     5     8    1
    8     8     9    1
    9     8    10    1
   10     8    11    1
   11    11    12    1
   12    11    13    1
   13    11    14    1
   14    14    15    1
   15    14    16    1
   16    14    17    1
@<TRIPOS>SUBSTRUCTURE
       1 MOL1            1 RESIDUE      1      MOL     
@<SCITEGIC>MOL_PROPERTY
VConf Rank
SciTegic.value.IntegerValue
754

@<SCITEGIC>MOL_PROPERTY
Conf_Id
SciTegic.value.IntegerValue
44

@<SCITEGIC>MOL_PROPERTY
Delta U+W
SciTegic.value.DoubleValue
2.712

@<SCITEGIC>MOL_PROPERTY
U+W
SciTegic.value.DoubleValue
-13.153

@<SCITEGIC>MOL_PROPERTY
Grad RMS
SciTegic.value.DoubleValue
0.000000

@<SCITEGIC>MOL_PROPERTY
U
SciTegic.value.DoubleValue
47.423

@<SCITEGIC>MOL_PROPERTY
W
SciTegic.value.DoubleValue
-60.576

@<SCITEGIC>MOL_PROPERTY
W(PB)
SciTegic.value.DoubleValue
-62.262

@<SCITEGIC>MOL_PROPERTY
W(SA)
SciTegic.value.DoubleValue
1.687

@<SCITEGIC>MOL_PROPERTY
Valence
SciTegic.value.DoubleValue
2.414

@<SCITEGIC>MOL_PROPERTY
Coulomb
SciTegic.value.DoubleValue
44.831

@<SCITEGIC>MOL_PROPERTY
VdW
SciTegic.value.DoubleValue
0.178

@<SCITEGIC>MOL_PROPERTY
VdW6
SciTegic.value.DoubleValue
-3.743

@<SCITEGIC>MOL_PROPERTY
VdW12
SciTegic.value.DoubleValue
3.922

@<SCITEGIC>MOL_PROPERTY
Bond
SciTegic.value.DoubleValue
0.138

@<SCITEGIC>MOL_PROPERTY
Angle
SciTegic.value.DoubleValue
0.941

@<SCITEGIC>MOL_PROPERTY
Pdih
SciTegic.value.DoubleValue
1.335

@<SCITEGIC>MOL_PROPERTY
Idih
SciTegic.value.DoubleValue
0.000

@<SCITEGIC>MOL_PROPERTY
Tether
SciTegic.value.DoubleValue
0.000

@<TRIPOS>MOLECULE
guest-1_confgen4.mol2 : confsearch ligand conformer 755
          17          16           1
SMALL
USER_CHARGES
 
@<TRIPOS>ATOM
       1    N1      21.206223   19.737638   20.257599 N.4        1 MOL1        -0.5891
       2    H1      21.734823   19.139599   20.898985 H          1 MOL1         0.3726
       3    H2      21.470848   20.706469   20.459388 H          1 MOL1         0.3726
       4    H3      21.539400   19.529136   19.310927 H          1 MOL1         0.3726
       5    C1      19.711222   19.520165   20.390021 C.3        1 MOL1         0.0314
       6    H4      19.495505   18.479712   20.133648 H          1 MOL1         0.0999
       7    H5      19.215343   20.159180   19.654288 H          1 MOL1         0.0999
       8    C2      19.158168   19.835120   21.795317 C.3        1 MOL1        -0.1308
       9    H6      19.343509   20.892355   22.026946 H          1 MOL1         0.1025
      10    H7      18.067060   19.712568   21.778950 H          1 MOL1         0.1025
      11    C3      19.753147   18.950681   22.919294 C.3        1 MOL1        -0.1243
      12    H8      19.313603   19.255509   23.879390 H          1 MOL1         0.1025
      13    H9      20.832998   19.130686   23.009713 H          1 MOL1         0.1025
      14    C4      19.493007   17.442061   22.704370 C.3        1 MOL1        -0.2258
      15    H10     18.418709   17.236133   22.611939 H          1 MOL1         0.1036
      16    H11     19.873184   16.860857   23.554449 H          1 MOL1         0.1036
      17    H12     19.991892   17.070895   21.800324 H          1 MOL1         0.1036
@<TRIPOS>BOND
    1     1     2    1
    2     1     3    1
    3     1     4    1
    4     1     5    1
    5     5     6    1
    6     5     7    1
    7     5     8    1
    8     8     9    1
    9     8    10    1
   10     8    11    1
   11    11    12    1
   12    11    13    1
   13    11    14    1
   14    14    15    1
   15    14    16    1
   16    14    17    1
@<TRIPOS>SUBSTRUCTURE
       1 MOL1            1 RESIDUE      1      MOL     
@<SCITEGIC>MOL_PROPERTY
VConf Rank
SciTegic.value.IntegerValue
755

@<SCITEGIC>MOL_PROPERTY
Conf_Id
SciTegic.value.IntegerValue
1

@<SCITEGIC>MOL_PROPERTY
Delta U+W
SciTegic.value.DoubleValue
0.685

@<SCITEGIC>MOL_PROPERTY
U+W
SciTegic.value.DoubleValue
-15.179

@<SCITEGIC>MOL_PROPERTY
Grad RMS
SciTegic.value.DoubleValue
0.000000

@<SCITEGIC>MOL_PROPERTY
U
SciTegic.value.DoubleValue
45.697

@<SCITEGIC>MOL_PROPERTY
W
SciTegic.value.DoubleValue
-60.876

@<SCITEGIC>MOL_PROPERTY
W(PB)
SciTegic.value.DoubleValue
-62.586

@<SCITEGIC>MOL_PROPERTY
W(SA)
SciTegic.value.DoubleValue
1.710

@<SCITEGIC>MOL_PROPERTY
Valence
SciTegic.value.DoubleValue
1.263

@<SCITEGIC>MOL_PROPERTY
Coulomb
SciTegic.value.DoubleValue
44.179

@<SCITEGIC>MOL_PROPERTY
VdW
SciTegic.value.DoubleValue
0.255

@<SCITEGIC>MOL_PROPERTY
VdW6
SciTegic.value.DoubleValue
-3.552

@<SCITEGIC>MOL_PROPERTY
VdW12
SciTegic.value.DoubleValue
3.807

@<SCITEGIC>MOL_PROPERTY
Bond
SciTegic.value.DoubleValue
0.125

@<SCITEGIC>MOL_PROPERTY
Angle
SciTegic.value.DoubleValue
0.616

@<SCITEGIC>MOL_PROPERTY
Pdih
SciTegic.value.DoubleValue
0.521

@<SCITEGIC>MOL_PROPERTY
Idih
SciTegic.value.DoubleValue
0.000

@<SCITEGIC>MOL_PROPERTY
Tether
SciTegic.value.DoubleValue
0.000

@<TRIPOS>MOLECULE
guest-1_confgen4.mol2 : confsearch ligand conformer 756
          17          16           1
SMALL
USER_CHARGES
 
@<TRIPOS>ATOM
       1    N1      21.357083   17.730716   21.142592 N.4        1 MOL1        -0.5891
       2    H1      20.967564   16.843260   20.810818 H          1 MOL1         0.3726
       3    H2      21.270386   17.736770   22.162835 H          1 MOL1         0.3726
       4    H3      22.359166   17.714811   20.927546 H          1 MOL1         0.3726
       5    C1      20.663941   18.923500   20.512769 C.3        1 MOL1         0.0314
       6    H4      20.828709   18.872469   19.433054 H          1 MOL1         0.0999
       7    H5      21.145191   19.831476   20.885305 H          1 MOL1         0.0999
       8    C2      19.148652   18.984193   20.795853 C.3        1 MOL1        -0.1308
       9    H6      18.723464   19.837530   20.251028 H          1 MOL1         0.1025
      10    H7      18.668522   18.087524   20.382080 H          1 MOL1         0.1025
      11    C3      18.792982   19.110853   22.298190 C.3        1 MOL1        -0.1243
      12    H8      19.131805   18.219152   22.842912 H          1 MOL1         0.1025
      13    H9      17.699073   19.132124   22.402187 H          1 MOL1         0.1025
      14    C4      19.384643   20.378690   22.955704 C.3        1 MOL1        -0.2258
      15    H10     19.054107   20.461239   23.999207 H          1 MOL1         0.1036
      16    H11     19.058992   21.285028   22.428855 H          1 MOL1         0.1036
      17    H12     20.481707   20.358703   22.956807 H          1 MOL1         0.1036
@<TRIPOS>BOND
    1     1     2    1
    2     1     3    1
    3     1     4    1
    4     1     5    1
    5     5     6    1
    6     5     7    1
    7     5     8    1
    8     8     9    1
    9     8    10    1
   10     8    11    1
   11    11    12    1
   12    11    13    1
   13    11    14    1
   14    14    15    1
   15    14    16    1
   16    14    17    1
@<TRIPOS>SUBSTRUCTURE
       1 MOL1            1 RESIDUE      1      MOL     
@<SCITEGIC>MOL_PROPERTY
VConf Rank
SciTegic.value.IntegerValue
756

@<SCITEGIC>MOL_PROPERTY
Conf_Id
SciTegic.value.IntegerValue
43

@<SCITEGIC>MOL_PROPERTY
Delta U+W
SciTegic.value.DoubleValue
0.642

@<SCITEGIC>MOL_PROPERTY
U+W
SciTegic.value.DoubleValue
-15.222

@<SCITEGIC>MOL_PROPERTY
Grad RMS
SciTegic.value.DoubleValue
0.000000

@<SCITEGIC>MOL_PROPERTY
U
SciTegic.value.DoubleValue
45.697

@<SCITEGIC>MOL_PROPERTY
W
SciTegic.value.DoubleValue
-60.919

@<SCITEGIC>MOL_PROPERTY
W(PB)
SciTegic.value.DoubleValue
-62.631

@<SCITEGIC>MOL_PROPERTY
W(SA)
SciTegic.value.DoubleValue
1.712

@<SCITEGIC>MOL_PROPERTY
Valence
SciTegic.value.DoubleValue
1.262

@<SCITEGIC>MOL_PROPERTY
Coulomb
SciTegic.value.DoubleValue
44.179

@<SCITEGIC>MOL_PROPERTY
VdW
SciTegic.value.DoubleValue
0.255

@<SCITEGIC>MOL_PROPERTY
VdW6
SciTegic.value.DoubleValue
-3.552

@<SCITEGIC>MOL_PROPERTY
VdW12
SciTegic.value.DoubleValue
3.807

@<SCITEGIC>MOL_PROPERTY
Bond
SciTegic.value.DoubleValue
0.125

@<SCITEGIC>MOL_PROPERTY
Angle
SciTegic.value.DoubleValue
0.616

@<SCITEGIC>MOL_PROPERTY
Pdih
SciTegic.value.DoubleValue
0.521

@<SCITEGIC>MOL_PROPERTY
Idih
SciTegic.value.DoubleValue
0.000

@<SCITEGIC>MOL_PROPERTY
Tether
SciTegic.value.DoubleValue
0.000

@<TRIPOS>MOLECULE
guest-1_confgen4.mol2 : confsearch ligand conformer 757
          17          16           1
SMALL
USER_CHARGES
 
@<TRIPOS>ATOM
       1    N1      21.553834   18.171940   19.800914 N.4        1 MOL1        -0.5891
       2    H1      20.992391   17.364941   19.512417 H          1 MOL1         0.3726
       3    H2      22.282240   17.821827   20.430630 H          1 MOL1         0.3726
       4    H3      22.029350   18.517442   18.961020 H          1 MOL1         0.3726
       5    C1      20.708579   19.247985   20.452855 C.3        1 MOL1         0.0314
       6    H4      19.977289   19.594535   19.717572 H          1 MOL1         0.0999
       7    H5      21.364289   20.085861   20.704911 H          1 MOL1         0.0999
       8    C2      19.979275   18.762659   21.718886 C.3        1 MOL1        -0.1308
       9    H6      19.333589   17.911450   21.464870 H          1 MOL1         0.1025
      10    H7      20.715816   18.401228   22.448862 H          1 MOL1         0.1025
      11    C3      19.130708   19.887889   22.350797 C.3        1 MOL1        -0.1243
      12    H8      18.395439   20.252376   21.619459 H          1 MOL1         0.1025
      13    H9      19.775976   20.741523   22.602319 H          1 MOL1         0.1025
      14    C4      18.396058   19.408348   23.621342 C.3        1 MOL1        -0.2258
      15    H10     17.799408   20.221572   24.054614 H          1 MOL1         0.1036
      16    H11     19.107779   19.069561   24.385465 H          1 MOL1         0.1036
      17    H12     17.716388   18.576509   23.394848 H          1 MOL1         0.1036
@<TRIPOS>BOND
    1     1     2    1
    2     1     3    1
    3     1     4    1
    4     1     5    1
    5     5     6    1
    6     5     7    1
    7     5     8    1
    8     8     9    1
    9     8    10    1
   10     8    11    1
   11    11    12    1
   12    11    13    1
   13    11    14    1
   14    14    15    1
   15    14    16    1
   16    14    17    1
@<TRIPOS>SUBSTRUCTURE
       1 MOL1            1 RESIDUE      1      MOL     
@<SCITEGIC>MOL_PROPERTY
VConf Rank
SciTegic.value.IntegerValue
757

@<SCITEGIC>MOL_PROPERTY
Conf_Id
SciTegic.value.IntegerValue
7

@<SCITEGIC>MOL_PROPERTY
Delta U+W
SciTegic.value.DoubleValue
0.000

@<SCITEGIC>MOL_PROPERTY
U+W
SciTegic.value.DoubleValue
-15.865

@<SCITEGIC>MOL_PROPERTY
Grad RMS
SciTegic.value.DoubleValue
0.000000

@<SCITEGIC>MOL_PROPERTY
U
SciTegic.value.DoubleValue
44.664

@<SCITEGIC>MOL_PROPERTY
W
SciTegic.value.DoubleValue
-60.529

@<SCITEGIC>MOL_PROPERTY
W(PB)
SciTegic.value.DoubleValue
-62.309

@<SCITEGIC>MOL_PROPERTY
W(SA)
SciTegic.value.DoubleValue
1.780

@<SCITEGIC>MOL_PROPERTY
Valence
SciTegic.value.DoubleValue
0.872

@<SCITEGIC>MOL_PROPERTY
Coulomb
SciTegic.value.DoubleValue
43.648

@<SCITEGIC>MOL_PROPERTY
VdW
SciTegic.value.DoubleValue
0.144

@<SCITEGIC>MOL_PROPERTY
VdW6
SciTegic.value.DoubleValue
-2.370

@<SCITEGIC>MOL_PROPERTY
VdW12
SciTegic.value.DoubleValue
2.515

@<SCITEGIC>MOL_PROPERTY
Bond
SciTegic.value.DoubleValue
0.080

@<SCITEGIC>MOL_PROPERTY
Angle
SciTegic.value.DoubleValue
0.376

@<SCITEGIC>MOL_PROPERTY
Pdih
SciTegic.value.DoubleValue
0.416

@<SCITEGIC>MOL_PROPERTY
Idih
SciTegic.value.DoubleValue
0.000

@<SCITEGIC>MOL_PROPERTY
Tether
SciTegic.value.DoubleValue
0.000

@<TRIPOS>MOLECULE
guest-1_confgen4.mol2 : confsearch ligand conformer 758
          17          16           1
SMALL
USER_CHARGES
 
@<TRIPOS>ATOM
       1    N1      21.154094   17.581905   20.194483 N.4        1 MOL1        -0.5891
       2    H1      21.956180   18.080931   19.797898 H          1 MOL1         0.3726
       3    H2      20.455871   17.495017   19.449781 H          1 MOL1         0.3726
       4    H3      21.474178   16.632857   20.412880 H          1 MOL1         0.3726
       5    C1      20.596257   18.283901   21.416521 C.3        1 MOL1         0.0314
       6    H4      21.381427   18.314007   22.176791 H          1 MOL1         0.0999
       7    H5      19.769131   17.681754   21.801384 H          1 MOL1         0.0999
       8    C2      20.105092   19.714493   21.123055 C.3        1 MOL1        -0.1308
       9    H6      20.932567   20.299259   20.699720 H          1 MOL1         0.1025
      10    H7      19.317662   19.684388   20.358245 H          1 MOL1         0.1025
      11    C3      19.574764   20.433755   22.385363 C.3        1 MOL1        -0.1243
      12    H8      19.317499   21.469901   22.124215 H          1 MOL1         0.1025
      13    H9      20.372065   20.494298   23.139570 H          1 MOL1         0.1025
      14    C4      18.333120   19.744807   22.996614 C.3        1 MOL1        -0.2258
      15    H10     17.522479   19.666155   22.260544 H          1 MOL1         0.1036
      16    H11     17.954732   20.321013   23.850907 H          1 MOL1         0.1036
      17    H12     18.568263   18.735331   23.356829 H          1 MOL1         0.1036
@<TRIPOS>BOND
    1     1     2    1
    2     1     3    1
    3     1     4    1
    4     1     5    1
    5     5     6    1
    6     5     7    1
    7     5     8    1
    8     8     9    1
    9     8    10    1
   10     8    11    1
   11    11    12    1
   12    11    13    1
   13    11    14    1
   14    14    15    1
   15    14    16    1
   16    14    17    1
@<TRIPOS>SUBSTRUCTURE
       1 MOL1            1 RESIDUE      1      MOL     
@<SCITEGIC>MOL_PROPERTY
VConf Rank
SciTegic.value.IntegerValue
758

@<SCITEGIC>MOL_PROPERTY
Conf_Id
SciTegic.value.IntegerValue
36

@<SCITEGIC>MOL_PROPERTY
Delta U+W
SciTegic.value.DoubleValue
0.275

@<SCITEGIC>MOL_PROPERTY
U+W
SciTegic.value.DoubleValue
-15.590

@<SCITEGIC>MOL_PROPERTY
Grad RMS
SciTegic.value.DoubleValue
0.000000

@<SCITEGIC>MOL_PROPERTY
U
SciTegic.value.DoubleValue
45.174

@<SCITEGIC>MOL_PROPERTY
W
SciTegic.value.DoubleValue
-60.765

@<SCITEGIC>MOL_PROPERTY
W(PB)
SciTegic.value.DoubleValue
-62.518

@<SCITEGIC>MOL_PROPERTY
W(SA)
SciTegic.value.DoubleValue
1.754

@<SCITEGIC>MOL_PROPERTY
Valence
SciTegic.value.DoubleValue
1.161

@<SCITEGIC>MOL_PROPERTY
Coulomb
SciTegic.value.DoubleValue
43.789

@<SCITEGIC>MOL_PROPERTY
VdW
SciTegic.value.DoubleValue
0.224

@<SCITEGIC>MOL_PROPERTY
VdW6
SciTegic.value.DoubleValue
-2.897

@<SCITEGIC>MOL_PROPERTY
VdW12
SciTegic.value.DoubleValue
3.121

@<SCITEGIC>MOL_PROPERTY
Bond
SciTegic.value.DoubleValue
0.100

@<SCITEGIC>MOL_PROPERTY
Angle
SciTegic.value.DoubleValue
0.500

@<SCITEGIC>MOL_PROPERTY
Pdih
SciTegic.value.DoubleValue
0.561

@<SCITEGIC>MOL_PROPERTY
Idih
SciTegic.value.DoubleValue
0.000

@<SCITEGIC>MOL_PROPERTY
Tether
SciTegic.value.DoubleValue
0.000

@<TRIPOS>MOLECULE
guest-1_confgen4.mol2 : confsearch ligand conformer 759
          17          16           1
SMALL
USER_CHARGES
 
@<TRIPOS>ATOM
       1    N1      18.500668   18.103899   20.822083 N.4        1 MOL1        -0.5891
       2    H1      19.280616   17.464407   20.994059 H          1 MOL1         0.3726
       3    H2      18.524427   18.347424   19.827291 H          1 MOL1         0.3726
       4    H3      17.636207   17.575543   20.978193 H          1 MOL1         0.3726
       5    C1      18.577156   19.334308   21.705415 C.3        1 MOL1         0.0314
       6    H4      18.478880   19.020857   22.748196 H          1 MOL1         0.0999
       7    H5      17.715061   19.959693   21.457982 H          1 MOL1         0.0999
       8    C2      19.866847   20.163162   21.528471 C.3        1 MOL1        -0.1308
       9    H6      20.101992   20.268731   20.461095 H          1 MOL1         0.1025
      10    H7      19.665064   21.178709   21.894251 H          1 MOL1         0.1025
      11    C3      21.094523   19.614200   22.299288 C.3        1 MOL1        -0.1243
      12    H8      20.867950   19.572956   23.373990 H          1 MOL1         0.1025
      13    H9      21.920420   20.331137   22.190272 H          1 MOL1         0.1025
      14    C4      21.580828   18.226955   21.821859 C.3        1 MOL1        -0.2258
      15    H10     20.874488   17.435732   22.098855 H          1 MOL1         0.1036
      16    H11     22.542267   17.978909   22.290117 H          1 MOL1         0.1036
      17    H12     21.725803   18.208094   20.733843 H          1 MOL1         0.1036
@<TRIPOS>BOND
    1     1     2    1
    2     1     3    1
    3     1     4    1
    4     1     5    1
    5     5     6    1
    6     5     7    1
    7     5     8    1
    8     8     9    1
    9     8    10    1
   10     8    11    1
   11    11    12    1
   12    11    13    1
   13    11    14    1
   14    14    15    1
   15    14    16    1
   16    14    17    1
@<TRIPOS>SUBSTRUCTURE
       1 MOL1            1 RESIDUE      1      MOL     
@<SCITEGIC>MOL_PROPERTY
VConf Rank
SciTegic.value.IntegerValue
759

@<SCITEGIC>MOL_PROPERTY
Conf_Id
SciTegic.value.IntegerValue
19

@<SCITEGIC>MOL_PROPERTY
Delta U+W
SciTegic.value.DoubleValue
2.662

@<SCITEGIC>MOL_PROPERTY
U+W
SciTegic.value.DoubleValue
-13.203

@<SCITEGIC>MOL_PROPERTY
Grad RMS
SciTegic.value.DoubleValue
0.000000

@<SCITEGIC>MOL_PROPERTY
U
SciTegic.value.DoubleValue
47.423

@<SCITEGIC>MOL_PROPERTY
W
SciTegic.value.DoubleValue
-60.626

@<SCITEGIC>MOL_PROPERTY
W(PB)
SciTegic.value.DoubleValue
-62.328

@<SCITEGIC>MOL_PROPERTY
W(SA)
SciTegic.value.DoubleValue
1.702

@<SCITEGIC>MOL_PROPERTY
Valence
SciTegic.value.DoubleValue
2.414

@<SCITEGIC>MOL_PROPERTY
Coulomb
SciTegic.value.DoubleValue
44.831

@<SCITEGIC>MOL_PROPERTY
VdW
SciTegic.value.DoubleValue
0.178

@<SCITEGIC>MOL_PROPERTY
VdW6
SciTegic.value.DoubleValue
-3.743

@<SCITEGIC>MOL_PROPERTY
VdW12
SciTegic.value.DoubleValue
3.921

@<SCITEGIC>MOL_PROPERTY
Bond
SciTegic.value.DoubleValue
0.138

@<SCITEGIC>MOL_PROPERTY
Angle
SciTegic.value.DoubleValue
0.941

@<SCITEGIC>MOL_PROPERTY
Pdih
SciTegic.value.DoubleValue
1.335

@<SCITEGIC>MOL_PROPERTY
Idih
SciTegic.value.DoubleValue
0.000

@<SCITEGIC>MOL_PROPERTY
Tether
SciTegic.value.DoubleValue
0.000

@<TRIPOS>MOLECULE
guest-1_confgen4.mol2 : confsearch ligand conformer 760
          17          16           1
SMALL
USER_CHARGES
 
@<TRIPOS>ATOM
       1    N1      20.832865   20.639651   21.840888 N.4        1 MOL1        -0.5891
       2    H1      21.294433   21.436030   21.389712 H          1 MOL1         0.3726
       3    H2      21.107985   20.656808   22.827546 H          1 MOL1         0.3726
       4    H3      19.825487   20.815257   21.806285 H          1 MOL1         0.3726
       5    C1      21.197696   19.325848   21.176917 C.3        1 MOL1         0.0314
       6    H4      22.282447   19.216180   21.259523 H          1 MOL1         0.0999
       7    H5      20.944586   19.390263   20.115273 H          1 MOL1         0.0999
       8    C2      20.518308   18.089067   21.801749 C.3        1 MOL1        -0.1308
       9    H6      21.112400   17.206862   21.528592 H          1 MOL1         0.1025
      10    H7      20.558549   18.151771   22.897276 H          1 MOL1         0.1025
      11    C3      19.062025   17.848008   21.328638 C.3        1 MOL1        -0.1243
      12    H8      18.715247   16.893430   21.748776 H          1 MOL1         0.1025
      13    H9      19.043953   17.723740   20.236735 H          1 MOL1         0.1025
      14    C4      18.065544   18.956543   21.737365 C.3        1 MOL1        -0.2258
      15    H10     18.127372   19.171659   22.812099 H          1 MOL1         0.1036
      16    H11     17.036486   18.642366   21.519447 H          1 MOL1         0.1036
      17    H12     18.243827   19.883362   21.179780 H          1 MOL1         0.1036
@<TRIPOS>BOND
    1     1     2    1
    2     1     3    1
    3     1     4    1
    4     1     5    1
    5     5     6    1
    6     5     7    1
    7     5     8    1
    8     8     9    1
    9     8    10    1
   10     8    11    1
   11    11    12    1
   12    11    13    1
   13    11    14    1
   14    14    15    1
   15    14    16    1
   16    14    17    1
@<TRIPOS>SUBSTRUCTURE
       1 MOL1            1 RESIDUE      1      MOL     
@<SCITEGIC>MOL_PROPERTY
VConf Rank
SciTegic.value.IntegerValue
760

@<SCITEGIC>MOL_PROPERTY
Conf_Id
SciTegic.value.IntegerValue
44

@<SCITEGIC>MOL_PROPERTY
Delta U+W
SciTegic.value.DoubleValue
2.712

@<SCITEGIC>MOL_PROPERTY
U+W
SciTegic.value.DoubleValue
-13.153

@<SCITEGIC>MOL_PROPERTY
Grad RMS
SciTegic.value.DoubleValue
0.000000

@<SCITEGIC>MOL_PROPERTY
U
SciTegic.value.DoubleValue
47.423

@<SCITEGIC>MOL_PROPERTY
W
SciTegic.value.DoubleValue
-60.576

@<SCITEGIC>MOL_PROPERTY
W(PB)
SciTegic.value.DoubleValue
-62.262

@<SCITEGIC>MOL_PROPERTY
W(SA)
SciTegic.value.DoubleValue
1.687

@<SCITEGIC>MOL_PROPERTY
Valence
SciTegic.value.DoubleValue
2.414

@<SCITEGIC>MOL_PROPERTY
Coulomb
SciTegic.value.DoubleValue
44.831

@<SCITEGIC>MOL_PROPERTY
VdW
SciTegic.value.DoubleValue
0.178

@<SCITEGIC>MOL_PROPERTY
VdW6
SciTegic.value.DoubleValue
-3.743

@<SCITEGIC>MOL_PROPERTY
VdW12
SciTegic.value.DoubleValue
3.922

@<SCITEGIC>MOL_PROPERTY
Bond
SciTegic.value.DoubleValue
0.138

@<SCITEGIC>MOL_PROPERTY
Angle
SciTegic.value.DoubleValue
0.941

@<SCITEGIC>MOL_PROPERTY
Pdih
SciTegic.value.DoubleValue
1.335

@<SCITEGIC>MOL_PROPERTY
Idih
SciTegic.value.DoubleValue
0.000

@<SCITEGIC>MOL_PROPERTY
Tether
SciTegic.value.DoubleValue
0.000

@<TRIPOS>MOLECULE
guest-1_confgen4.mol2 : confsearch ligand conformer 761
          17          16           1
SMALL
USER_CHARGES
 
@<TRIPOS>ATOM
       1    N1      18.810545   20.487236   22.386292 N.4        1 MOL1        -0.5891
       2    H1      18.748879   20.580422   21.368470 H          1 MOL1         0.3726
       3    H2      19.389351   21.260847   22.726715 H          1 MOL1         0.3726
       4    H3      17.866906   20.635584   22.758053 H          1 MOL1         0.3726
       5    C1      19.371817   19.138684   22.794015 C.3        1 MOL1         0.0314
       6    H4      18.694225   18.363757   22.426369 H          1 MOL1         0.0999
       7    H5      19.373604   19.095316   23.886560 H          1 MOL1         0.0999
       8    C2      20.798410   18.873703   22.270050 C.3        1 MOL1        -0.1308
       9    H6      21.478813   19.633249   22.677346 H          1 MOL1         0.1025
      10    H7      21.144505   17.909641   22.665785 H          1 MOL1         0.1025
      11    C3      20.909592   18.859457   20.725061 C.3        1 MOL1        -0.1243
      12    H8      21.957630   18.679321   20.447444 H          1 MOL1         0.1025
      13    H9      20.654174   19.847644   20.318980 H          1 MOL1         0.1025
      14    C4      20.022352   17.779773   20.064087 C.3        1 MOL1        -0.2258
      15    H10     20.259857   16.781250   20.453458 H          1 MOL1         0.1036
      16    H11     20.181929   17.762136   18.978180 H          1 MOL1         0.1036
      17    H12     18.956053   17.970744   20.238685 H          1 MOL1         0.1036
@<TRIPOS>BOND
    1     1     2    1
    2     1     3    1
    3     1     4    1
    4     1     5    1
    5     5     6    1
    6     5     7    1
    7     5     8    1
    8     8     9    1
    9     8    10    1
   10     8    11    1
   11    11    12    1
   12    11    13    1
   13    11    14    1
   14    14    15    1
   15    14    16    1
   16    14    17    1
@<TRIPOS>SUBSTRUCTURE
       1 MOL1            1 RESIDUE      1      MOL     
@<SCITEGIC>MOL_PROPERTY
VConf Rank
SciTegic.value.IntegerValue
761

@<SCITEGIC>MOL_PROPERTY
Conf_Id
SciTegic.value.IntegerValue
1

@<SCITEGIC>MOL_PROPERTY
Delta U+W
SciTegic.value.DoubleValue
0.685

@<SCITEGIC>MOL_PROPERTY
U+W
SciTegic.value.DoubleValue
-15.179

@<SCITEGIC>MOL_PROPERTY
Grad RMS
SciTegic.value.DoubleValue
0.000000

@<SCITEGIC>MOL_PROPERTY
U
SciTegic.value.DoubleValue
45.697

@<SCITEGIC>MOL_PROPERTY
W
SciTegic.value.DoubleValue
-60.876

@<SCITEGIC>MOL_PROPERTY
W(PB)
SciTegic.value.DoubleValue
-62.586

@<SCITEGIC>MOL_PROPERTY
W(SA)
SciTegic.value.DoubleValue
1.710

@<SCITEGIC>MOL_PROPERTY
Valence
SciTegic.value.DoubleValue
1.263

@<SCITEGIC>MOL_PROPERTY
Coulomb
SciTegic.value.DoubleValue
44.179

@<SCITEGIC>MOL_PROPERTY
VdW
SciTegic.value.DoubleValue
0.255

@<SCITEGIC>MOL_PROPERTY
VdW6
SciTegic.value.DoubleValue
-3.552

@<SCITEGIC>MOL_PROPERTY
VdW12
SciTegic.value.DoubleValue
3.807

@<SCITEGIC>MOL_PROPERTY
Bond
SciTegic.value.DoubleValue
0.125

@<SCITEGIC>MOL_PROPERTY
Angle
SciTegic.value.DoubleValue
0.616

@<SCITEGIC>MOL_PROPERTY
Pdih
SciTegic.value.DoubleValue
0.521

@<SCITEGIC>MOL_PROPERTY
Idih
SciTegic.value.DoubleValue
0.000

@<SCITEGIC>MOL_PROPERTY
Tether
SciTegic.value.DoubleValue
0.000

@<TRIPOS>MOLECULE
guest-1_confgen4.mol2 : confsearch ligand conformer 762
          17          16           1
SMALL
USER_CHARGES
 
@<TRIPOS>ATOM
       1    N1      19.745156   20.241350   20.035569 N.4        1 MOL1        -0.5891
       2    H1      20.599711   20.784411   19.880016 H          1 MOL1         0.3726
       3    H2      19.245821   20.679309   20.814867 H          1 MOL1         0.3726
       4    H3      19.161183   20.360006   19.201564 H          1 MOL1         0.3726
       5    C1      20.045348   18.780516   20.310719 C.3        1 MOL1         0.0314
       6    H4      20.542145   18.370529   19.427180 H          1 MOL1         0.0999
       7    H5      19.094432   18.256511   20.437138 H          1 MOL1         0.0999
       8    C2      20.934999   18.550235   21.549836 C.3        1 MOL1        -0.1308
       9    H6      21.151298   17.476824   21.632335 H          1 MOL1         0.1025
      10    H7      21.902607   19.046018   21.395950 H          1 MOL1         0.1025
      11    C3      20.308208   19.046852   22.876510 C.3        1 MOL1        -0.1243
      12    H8      20.170234   20.136158   22.844441 H          1 MOL1         0.1025
      13    H9      21.015448   18.854884   23.695573 H          1 MOL1         0.1025
      14    C4      18.962119   18.360990   23.204285 C.3        1 MOL1        -0.2258
      15    H10     18.588238   18.693826   24.181220 H          1 MOL1         0.1036
      16    H11     19.074444   17.269686   23.243090 H          1 MOL1         0.1036
      17    H12     18.194597   18.599936   22.457449 H          1 MOL1         0.1036
@<TRIPOS>BOND
    1     1     2    1
    2     1     3    1
    3     1     4    1
    4     1     5    1
    5     5     6    1
    6     5     7    1
    7     5     8    1
    8     8     9    1
    9     8    10    1
   10     8    11    1
   11    11    12    1
   12    11    13    1
   13    11    14    1
   14    14    15    1
   15    14    16    1
   16    14    17    1
@<TRIPOS>SUBSTRUCTURE
       1 MOL1            1 RESIDUE      1      MOL     
@<SCITEGIC>MOL_PROPERTY
VConf Rank
SciTegic.value.IntegerValue
762

@<SCITEGIC>MOL_PROPERTY
Conf_Id
SciTegic.value.IntegerValue
43

@<SCITEGIC>MOL_PROPERTY
Delta U+W
SciTegic.value.DoubleValue
0.642

@<SCITEGIC>MOL_PROPERTY
U+W
SciTegic.value.DoubleValue
-15.222

@<SCITEGIC>MOL_PROPERTY
Grad RMS
SciTegic.value.DoubleValue
0.000000

@<SCITEGIC>MOL_PROPERTY
U
SciTegic.value.DoubleValue
45.697

@<SCITEGIC>MOL_PROPERTY
W
SciTegic.value.DoubleValue
-60.919

@<SCITEGIC>MOL_PROPERTY
W(PB)
SciTegic.value.DoubleValue
-62.631

@<SCITEGIC>MOL_PROPERTY
W(SA)
SciTegic.value.DoubleValue
1.712

@<SCITEGIC>MOL_PROPERTY
Valence
SciTegic.value.DoubleValue
1.262

@<SCITEGIC>MOL_PROPERTY
Coulomb
SciTegic.value.DoubleValue
44.179

@<SCITEGIC>MOL_PROPERTY
VdW
SciTegic.value.DoubleValue
0.255

@<SCITEGIC>MOL_PROPERTY
VdW6
SciTegic.value.DoubleValue
-3.552

@<SCITEGIC>MOL_PROPERTY
VdW12
SciTegic.value.DoubleValue
3.807

@<SCITEGIC>MOL_PROPERTY
Bond
SciTegic.value.DoubleValue
0.125

@<SCITEGIC>MOL_PROPERTY
Angle
SciTegic.value.DoubleValue
0.616

@<SCITEGIC>MOL_PROPERTY
Pdih
SciTegic.value.DoubleValue
0.521

@<SCITEGIC>MOL_PROPERTY
Idih
SciTegic.value.DoubleValue
0.000

@<SCITEGIC>MOL_PROPERTY
Tether
SciTegic.value.DoubleValue
0.000

@<TRIPOS>MOLECULE
guest-1_confgen4.mol2 : confsearch ligand conformer 763
          17          16           1
SMALL
USER_CHARGES
 
@<TRIPOS>ATOM
       1    N1      22.427515   18.386399   21.440389 N.4        1 MOL1        -0.5891
       2    H1      22.695640   18.634030   22.397721 H          1 MOL1         0.3726
       3    H2      22.734821   19.153066   20.834187 H          1 MOL1         0.3726
       4    H3      22.981270   17.563573   21.181119 H          1 MOL1         0.3726
       5    C1      20.939472   18.126053   21.316675 C.3        1 MOL1         0.0314
       6    H4      20.689734   17.280700   21.963615 H          1 MOL1         0.0999
       7    H5      20.731869   17.838786   20.282314 H          1 MOL1         0.0999
       8    C2      20.076856   19.342635   21.698883 C.3        1 MOL1        -0.1308
       9    H6      20.299297   19.637769   22.733004 H          1 MOL1         0.1025
      10    H7      20.341178   20.193882   21.057398 H          1 MOL1         0.1025
      11    C3      18.569694   19.035269   21.559203 C.3        1 MOL1        -0.1243
      12    H8      18.305162   18.181136   22.198582 H          1 MOL1         0.1025
      13    H9      18.346972   18.736643   20.525016 H          1 MOL1         0.1025
      14    C4      17.698035   20.251155   21.941022 C.3        1 MOL1        -0.2258
      15    H10     16.631779   20.012510   21.835210 H          1 MOL1         0.1036
      16    H11     17.915601   21.111949   21.295340 H          1 MOL1         0.1036
      17    H12     17.873513   20.552089   22.982105 H          1 MOL1         0.1036
@<TRIPOS>BOND
    1     1     2    1
    2     1     3    1
    3     1     4    1
    4     1     5    1
    5     5     6    1
    6     5     7    1
    7     5     8    1
    8     8     9    1
    9     8    10    1
   10     8    11    1
   11    11    12    1
   12    11    13    1
   13    11    14    1
   14    14    15    1
   15    14    16    1
   16    14    17    1
@<TRIPOS>SUBSTRUCTURE
       1 MOL1            1 RESIDUE      1      MOL     
@<SCITEGIC>MOL_PROPERTY
VConf Rank
SciTegic.value.IntegerValue
763

@<SCITEGIC>MOL_PROPERTY
Conf_Id
SciTegic.value.IntegerValue
7

@<SCITEGIC>MOL_PROPERTY
Delta U+W
SciTegic.value.DoubleValue
0.000

@<SCITEGIC>MOL_PROPERTY
U+W
SciTegic.value.DoubleValue
-15.865

@<SCITEGIC>MOL_PROPERTY
Grad RMS
SciTegic.value.DoubleValue
0.000000

@<SCITEGIC>MOL_PROPERTY
U
SciTegic.value.DoubleValue
44.664

@<SCITEGIC>MOL_PROPERTY
W
SciTegic.value.DoubleValue
-60.529

@<SCITEGIC>MOL_PROPERTY
W(PB)
SciTegic.value.DoubleValue
-62.309

@<SCITEGIC>MOL_PROPERTY
W(SA)
SciTegic.value.DoubleValue
1.780

@<SCITEGIC>MOL_PROPERTY
Valence
SciTegic.value.DoubleValue
0.872

@<SCITEGIC>MOL_PROPERTY
Coulomb
SciTegic.value.DoubleValue
43.648

@<SCITEGIC>MOL_PROPERTY
VdW
SciTegic.value.DoubleValue
0.144

@<SCITEGIC>MOL_PROPERTY
VdW6
SciTegic.value.DoubleValue
-2.370

@<SCITEGIC>MOL_PROPERTY
VdW12
SciTegic.value.DoubleValue
2.515

@<SCITEGIC>MOL_PROPERTY
Bond
SciTegic.value.DoubleValue
0.080

@<SCITEGIC>MOL_PROPERTY
Angle
SciTegic.value.DoubleValue
0.376

@<SCITEGIC>MOL_PROPERTY
Pdih
SciTegic.value.DoubleValue
0.416

@<SCITEGIC>MOL_PROPERTY
Idih
SciTegic.value.DoubleValue
0.000

@<SCITEGIC>MOL_PROPERTY
Tether
SciTegic.value.DoubleValue
0.000

@<TRIPOS>MOLECULE
guest-1_confgen4.mol2 : confsearch ligand conformer 764
          17          16           1
SMALL
USER_CHARGES
 
@<TRIPOS>ATOM
       1    N1      19.688584   20.705277   19.836849 N.4        1 MOL1        -0.5891
       2    H1      20.262115   21.525629   20.055328 H          1 MOL1         0.3726
       3    H2      18.713230   20.964772   20.012894 H          1 MOL1         0.3726
       4    H3      19.774874   20.543626   18.828253 H          1 MOL1         0.3726
       5    C1      20.106518   19.489934   20.640359 C.3        1 MOL1         0.0314
       6    H4      21.142079   19.253374   20.381395 H          1 MOL1         0.0999
       7    H5      19.476108   18.651372   20.333385 H          1 MOL1         0.0999
       8    C2      19.988594   19.698925   22.162324 C.3        1 MOL1        -0.1308
       9    H6      20.593619   20.567633   22.454160 H          1 MOL1         0.1025
      10    H7      18.948827   19.938167   22.422199 H          1 MOL1         0.1025
      11    C3      20.454906   18.466166   22.971561 C.3        1 MOL1        -0.1243
      12    H8      20.421657   18.709080   24.042947 H          1 MOL1         0.1025
      13    H9      21.505943   18.245465   22.737481 H          1 MOL1         0.1025
      14    C4      19.590607   17.210903   22.712214 C.3        1 MOL1        -0.2258
      15    H10     18.533240   17.406741   22.933004 H          1 MOL1         0.1036
      16    H11     19.917476   16.379902   23.350651 H          1 MOL1         0.1036
      17    H12     19.667005   16.876807   21.669797 H          1 MOL1         0.1036
@<TRIPOS>BOND
    1     1     2    1
    2     1     3    1
    3     1     4    1
    4     1     5    1
    5     5     6    1
    6     5     7    1
    7     5     8    1
    8     8     9    1
    9     8    10    1
   10     8    11    1
   11    11    12    1
   12    11    13    1
   13    11    14    1
   14    14    15    1
   15    14    16    1
   16    14    17    1
@<TRIPOS>SUBSTRUCTURE
       1 MOL1            1 RESIDUE      1      MOL     
@<SCITEGIC>MOL_PROPERTY
VConf Rank
SciTegic.value.IntegerValue
764

@<SCITEGIC>MOL_PROPERTY
Conf_Id
SciTegic.value.IntegerValue
36

@<SCITEGIC>MOL_PROPERTY
Delta U+W
SciTegic.value.DoubleValue
0.275

@<SCITEGIC>MOL_PROPERTY
U+W
SciTegic.value.DoubleValue
-15.590

@<SCITEGIC>MOL_PROPERTY
Grad RMS
SciTegic.value.DoubleValue
0.000000

@<SCITEGIC>MOL_PROPERTY
U
SciTegic.value.DoubleValue
45.174

@<SCITEGIC>MOL_PROPERTY
W
SciTegic.value.DoubleValue
-60.765

@<SCITEGIC>MOL_PROPERTY
W(PB)
SciTegic.value.DoubleValue
-62.518

@<SCITEGIC>MOL_PROPERTY
W(SA)
SciTegic.value.DoubleValue
1.754

@<SCITEGIC>MOL_PROPERTY
Valence
SciTegic.value.DoubleValue
1.161

@<SCITEGIC>MOL_PROPERTY
Coulomb
SciTegic.value.DoubleValue
43.789

@<SCITEGIC>MOL_PROPERTY
VdW
SciTegic.value.DoubleValue
0.224

@<SCITEGIC>MOL_PROPERTY
VdW6
SciTegic.value.DoubleValue
-2.897

@<SCITEGIC>MOL_PROPERTY
VdW12
SciTegic.value.DoubleValue
3.121

@<SCITEGIC>MOL_PROPERTY
Bond
SciTegic.value.DoubleValue
0.100

@<SCITEGIC>MOL_PROPERTY
Angle
SciTegic.value.DoubleValue
0.500

@<SCITEGIC>MOL_PROPERTY
Pdih
SciTegic.value.DoubleValue
0.561

@<SCITEGIC>MOL_PROPERTY
Idih
SciTegic.value.DoubleValue
0.000

@<SCITEGIC>MOL_PROPERTY
Tether
SciTegic.value.DoubleValue
0.000

@<TRIPOS>MOLECULE
guest-1_confgen4.mol2 : confsearch ligand conformer 765
          17          16           1
SMALL
USER_CHARGES
 
@<TRIPOS>ATOM
       1    N1      18.346943   18.631670   20.709431 N.4        1 MOL1        -0.5891
       2    H1      18.374554   19.596221   21.049613 H          1 MOL1         0.3726
       3    H2      17.768451   18.097488   21.364775 H          1 MOL1         0.3726
       4    H3      17.849364   18.641102   19.813245 H          1 MOL1         0.3726
       5    C1      19.738013   18.042431   20.576191 C.3        1 MOL1         0.0314
       6    H4      20.284702   18.608678   19.817378 H          1 MOL1         0.0999
       7    H5      19.618012   17.018372   20.212267 H          1 MOL1         0.0999
       8    C2      20.545006   18.017266   21.891388 C.3        1 MOL1        -0.1308
       9    H6      19.907286   17.674236   22.716841 H          1 MOL1         0.1025
      10    H7      21.333842   17.260669   21.785818 H          1 MOL1         0.1025
      11    C3      21.221542   19.363333   22.256227 C.3        1 MOL1        -0.1243
      12    H8      21.905130   19.663939   21.449775 H          1 MOL1         0.1025
      13    H9      21.849959   19.205314   23.143984 H          1 MOL1         0.1025
      14    C4      20.234362   20.515531   22.550844 C.3        1 MOL1        -0.2258
      15    H10     19.727759   20.854215   21.639624 H          1 MOL1         0.1036
      16    H11     20.770980   21.380673   22.961608 H          1 MOL1         0.1036
      17    H12     19.477294   20.213578   23.286253 H          1 MOL1         0.1036
@<TRIPOS>BOND
    1     1     2    1
    2     1     3    1
    3     1     4    1
    4     1     5    1
    5     5     6    1
    6     5     7    1
    7     5     8    1
    8     8     9    1
    9     8    10    1
   10     8    11    1
   11    11    12    1
   12    11    13    1
   13    11    14    1
   14    14    15    1
   15    14    16    1
   16    14    17    1
@<TRIPOS>SUBSTRUCTURE
       1 MOL1            1 RESIDUE      1      MOL     
@<SCITEGIC>MOL_PROPERTY
VConf Rank
SciTegic.value.IntegerValue
765

@<SCITEGIC>MOL_PROPERTY
Conf_Id
SciTegic.value.IntegerValue
19

@<SCITEGIC>MOL_PROPERTY
Delta U+W
SciTegic.value.DoubleValue
2.662

@<SCITEGIC>MOL_PROPERTY
U+W
SciTegic.value.DoubleValue
-13.203

@<SCITEGIC>MOL_PROPERTY
Grad RMS
SciTegic.value.DoubleValue
0.000000

@<SCITEGIC>MOL_PROPERTY
U
SciTegic.value.DoubleValue
47.423

@<SCITEGIC>MOL_PROPERTY
W
SciTegic.value.DoubleValue
-60.626

@<SCITEGIC>MOL_PROPERTY
W(PB)
SciTegic.value.DoubleValue
-62.328

@<SCITEGIC>MOL_PROPERTY
W(SA)
SciTegic.value.DoubleValue
1.702

@<SCITEGIC>MOL_PROPERTY
Valence
SciTegic.value.DoubleValue
2.414

@<SCITEGIC>MOL_PROPERTY
Coulomb
SciTegic.value.DoubleValue
44.831

@<SCITEGIC>MOL_PROPERTY
VdW
SciTegic.value.DoubleValue
0.178

@<SCITEGIC>MOL_PROPERTY
VdW6
SciTegic.value.DoubleValue
-3.743

@<SCITEGIC>MOL_PROPERTY
VdW12
SciTegic.value.DoubleValue
3.921

@<SCITEGIC>MOL_PROPERTY
Bond
SciTegic.value.DoubleValue
0.138

@<SCITEGIC>MOL_PROPERTY
Angle
SciTegic.value.DoubleValue
0.941

@<SCITEGIC>MOL_PROPERTY
Pdih
SciTegic.value.DoubleValue
1.335

@<SCITEGIC>MOL_PROPERTY
Idih
SciTegic.value.DoubleValue
0.000

@<SCITEGIC>MOL_PROPERTY
Tether
SciTegic.value.DoubleValue
0.000

@<TRIPOS>MOLECULE
guest-1_confgen4.mol2 : confsearch ligand conformer 766
          17          16           1
SMALL
USER_CHARGES
 
@<TRIPOS>ATOM
       1    N1      21.448120   19.717118   22.354072 N.4        1 MOL1        -0.5891
       2    H1      22.452552   19.880030   22.229982 H          1 MOL1         0.3726
       3    H2      21.242231   19.872555   23.345500 H          1 MOL1         0.3726
       4    H3      20.957019   20.443810   21.827210 H          1 MOL1         0.3726
       5    C1      21.042533   18.326278   21.905628 C.3        1 MOL1         0.0314
       6    H4      21.607489   17.616154   22.515615 H          1 MOL1         0.0999
       7    H5      21.346967   18.193785   20.863962 H          1 MOL1         0.0999
       8    C2      19.535653   18.026883   22.051528 C.3        1 MOL1        -0.1308
       9    H6      19.411658   16.936038   22.074551 H          1 MOL1         0.1025
      10    H7      19.172405   18.391767   23.021394 H          1 MOL1         0.1025
      11    C3      18.655801   18.582337   20.902600 C.3        1 MOL1        -0.1243
      12    H8      17.627191   18.224444   21.050467 H          1 MOL1         0.1025
      13    H9      18.989527   18.160097   19.944289 H          1 MOL1         0.1025
      14    C4      18.631006   20.124657   20.805067 C.3        1 MOL1        -0.2258
      15    H10     18.392862   20.581609   21.774415 H          1 MOL1         0.1036
      16    H11     17.865773   20.448284   20.087544 H          1 MOL1         0.1036
      17    H12     19.590427   20.520999   20.452781 H          1 MOL1         0.1036
@<TRIPOS>BOND
    1     1     2    1
    2     1     3    1
    3     1     4    1
    4     1     5    1
    5     5     6    1
    6     5     7    1
    7     5     8    1
    8     8     9    1
    9     8    10    1
   10     8    11    1
   11    11    12    1
   12    11    13    1
   13    11    14    1
   14    14    15    1
   15    14    16    1
   16    14    17    1
@<TRIPOS>SUBSTRUCTURE
       1 MOL1            1 RESIDUE      1      MOL     
@<SCITEGIC>MOL_PROPERTY
VConf Rank
SciTegic.value.IntegerValue
766

@<SCITEGIC>MOL_PROPERTY
Conf_Id
SciTegic.value.IntegerValue
44

@<SCITEGIC>MOL_PROPERTY
Delta U+W
SciTegic.value.DoubleValue
2.712

@<SCITEGIC>MOL_PROPERTY
U+W
SciTegic.value.DoubleValue
-13.153

@<SCITEGIC>MOL_PROPERTY
Grad RMS
SciTegic.value.DoubleValue
0.000000

@<SCITEGIC>MOL_PROPERTY
U
SciTegic.value.DoubleValue
47.423

@<SCITEGIC>MOL_PROPERTY
W
SciTegic.value.DoubleValue
-60.576

@<SCITEGIC>MOL_PROPERTY
W(PB)
SciTegic.value.DoubleValue
-62.262

@<SCITEGIC>MOL_PROPERTY
W(SA)
SciTegic.value.DoubleValue
1.687

@<SCITEGIC>MOL_PROPERTY
Valence
SciTegic.value.DoubleValue
2.414

@<SCITEGIC>MOL_PROPERTY
Coulomb
SciTegic.value.DoubleValue
44.831

@<SCITEGIC>MOL_PROPERTY
VdW
SciTegic.value.DoubleValue
0.178

@<SCITEGIC>MOL_PROPERTY
VdW6
SciTegic.value.DoubleValue
-3.743

@<SCITEGIC>MOL_PROPERTY
VdW12
SciTegic.value.DoubleValue
3.922

@<SCITEGIC>MOL_PROPERTY
Bond
SciTegic.value.DoubleValue
0.138

@<SCITEGIC>MOL_PROPERTY
Angle
SciTegic.value.DoubleValue
0.941

@<SCITEGIC>MOL_PROPERTY
Pdih
SciTegic.value.DoubleValue
1.335

@<SCITEGIC>MOL_PROPERTY
Idih
SciTegic.value.DoubleValue
0.000

@<SCITEGIC>MOL_PROPERTY
Tether
SciTegic.value.DoubleValue
0.000

@<TRIPOS>MOLECULE
guest-1_confgen4.mol2 : confsearch ligand conformer 767
          17          16           1
SMALL
USER_CHARGES
 
@<TRIPOS>ATOM
       1    N1      21.888654   18.920617   21.825648 N.4        1 MOL1        -0.5891
       2    H1      21.634860   19.909097   21.908968 H          1 MOL1         0.3726
       3    H2      22.364425   18.804909   20.925852 H          1 MOL1         0.3726
       4    H3      22.581587   18.727045   22.555746 H          1 MOL1         0.3726
       5    C1      20.676342   18.017328   21.944922 C.3        1 MOL1         0.0314
       6    H4      20.236182   18.168728   22.933933 H          1 MOL1         0.0999
       7    H5      21.024849   16.982681   21.885035 H          1 MOL1         0.0999
       8    C2      19.609169   18.260508   20.857758 C.3        1 MOL1        -0.1308
       9    H6      20.049501   18.066533   19.870726 H          1 MOL1         0.1025
      10    H7      18.805020   17.523455   20.983854 H          1 MOL1         0.1025
      11    C3      19.001843   19.685385   20.878653 C.3        1 MOL1        -0.1243
      12    H8      18.267393   19.768865   20.065316 H          1 MOL1         0.1025
      13    H9      19.779445   20.430497   20.662326 H          1 MOL1         0.1025
      14    C4      18.309622   20.028961   22.217528 C.3        1 MOL1        -0.2258
      15    H10     17.526151   19.297850   22.455682 H          1 MOL1         0.1036
      16    H11     17.838448   21.018984   22.164431 H          1 MOL1         0.1036
      17    H12     19.025151   20.047317   23.049171 H          1 MOL1         0.1036
@<TRIPOS>BOND
    1     1     2    1
    2     1     3    1
    3     1     4    1
    4     1     5    1
    5     5     6    1
    6     5     7    1
    7     5     8    1
    8     8     9    1
    9     8    10    1
   10     8    11    1
   11    11    12    1
   12    11    13    1
   13    11    14    1
   14    14    15    1
   15    14    16    1
   16    14    17    1
@<TRIPOS>SUBSTRUCTURE
       1 MOL1            1 RESIDUE      1      MOL     
@<SCITEGIC>MOL_PROPERTY
VConf Rank
SciTegic.value.IntegerValue
767

@<SCITEGIC>MOL_PROPERTY
Conf_Id
SciTegic.value.IntegerValue
1

@<SCITEGIC>MOL_PROPERTY
Delta U+W
SciTegic.value.DoubleValue
0.685

@<SCITEGIC>MOL_PROPERTY
U+W
SciTegic.value.DoubleValue
-15.179

@<SCITEGIC>MOL_PROPERTY
Grad RMS
SciTegic.value.DoubleValue
0.000000

@<SCITEGIC>MOL_PROPERTY
U
SciTegic.value.DoubleValue
45.697

@<SCITEGIC>MOL_PROPERTY
W
SciTegic.value.DoubleValue
-60.876

@<SCITEGIC>MOL_PROPERTY
W(PB)
SciTegic.value.DoubleValue
-62.586

@<SCITEGIC>MOL_PROPERTY
W(SA)
SciTegic.value.DoubleValue
1.710

@<SCITEGIC>MOL_PROPERTY
Valence
SciTegic.value.DoubleValue
1.263

@<SCITEGIC>MOL_PROPERTY
Coulomb
SciTegic.value.DoubleValue
44.179

@<SCITEGIC>MOL_PROPERTY
VdW
SciTegic.value.DoubleValue
0.255

@<SCITEGIC>MOL_PROPERTY
VdW6
SciTegic.value.DoubleValue
-3.552

@<SCITEGIC>MOL_PROPERTY
VdW12
SciTegic.value.DoubleValue
3.807

@<SCITEGIC>MOL_PROPERTY
Bond
SciTegic.value.DoubleValue
0.125

@<SCITEGIC>MOL_PROPERTY
Angle
SciTegic.value.DoubleValue
0.616

@<SCITEGIC>MOL_PROPERTY
Pdih
SciTegic.value.DoubleValue
0.521

@<SCITEGIC>MOL_PROPERTY
Idih
SciTegic.value.DoubleValue
0.000

@<SCITEGIC>MOL_PROPERTY
Tether
SciTegic.value.DoubleValue
0.000

@<TRIPOS>MOLECULE
guest-1_confgen4.mol2 : confsearch ligand conformer 768
          17          16           1
SMALL
USER_CHARGES
 
@<TRIPOS>ATOM
       1    N1      19.515303   18.491258   23.466607 N.4        1 MOL1        -0.5891
       2    H1      18.611220   18.861500   23.774715 H          1 MOL1         0.3726
       3    H2      20.190014   19.259851   23.516383 H          1 MOL1         0.3726
       4    H3      19.803752   17.794466   24.160830 H          1 MOL1         0.3726
       5    C1      19.439048   17.900053   22.072146 C.3        1 MOL1         0.0314
       6    H4      18.732467   17.066160   22.102215 H          1 MOL1         0.0999
       7    H5      20.423969   17.499208   21.819048 H          1 MOL1         0.0999
       8    C2      18.994200   18.907691   20.992009 C.3        1 MOL1        -0.1308
       9    H6      18.905605   18.379004   20.033653 H          1 MOL1         0.1025
      10    H7      17.987446   19.273690   21.233335 H          1 MOL1         0.1025
      11    C3      19.952277   20.112992   20.822022 C.3        1 MOL1        -0.1243
      12    H8      19.980681   20.706033   21.746224 H          1 MOL1         0.1025
      13    H9      19.548603   20.779179   20.046685 H          1 MOL1         0.1025
      14    C4      21.387287   19.694864   20.427418 C.3        1 MOL1        -0.2258
      15    H10     22.012452   20.580376   20.254203 H          1 MOL1         0.1036
      16    H11     21.385434   19.100800   19.504297 H          1 MOL1         0.1036
      17    H12     21.866228   19.100913   21.215952 H          1 MOL1         0.1036
@<TRIPOS>BOND
    1     1     2    1
    2     1     3    1
    3     1     4    1
    4     1     5    1
    5     5     6    1
    6     5     7    1
    7     5     8    1
    8     8     9    1
    9     8    10    1
   10     8    11    1
   11    11    12    1
   12    11    13    1
   13    11    14    1
   14    14    15    1
   15    14    16    1
   16    14    17    1
@<TRIPOS>SUBSTRUCTURE
       1 MOL1            1 RESIDUE      1      MOL     
@<SCITEGIC>MOL_PROPERTY
VConf Rank
SciTegic.value.IntegerValue
768

@<SCITEGIC>MOL_PROPERTY
Conf_Id
SciTegic.value.IntegerValue
43

@<SCITEGIC>MOL_PROPERTY
Delta U+W
SciTegic.value.DoubleValue
0.642

@<SCITEGIC>MOL_PROPERTY
U+W
SciTegic.value.DoubleValue
-15.222

@<SCITEGIC>MOL_PROPERTY
Grad RMS
SciTegic.value.DoubleValue
0.000000

@<SCITEGIC>MOL_PROPERTY
U
SciTegic.value.DoubleValue
45.697

@<SCITEGIC>MOL_PROPERTY
W
SciTegic.value.DoubleValue
-60.919

@<SCITEGIC>MOL_PROPERTY
W(PB)
SciTegic.value.DoubleValue
-62.631

@<SCITEGIC>MOL_PROPERTY
W(SA)
SciTegic.value.DoubleValue
1.712

@<SCITEGIC>MOL_PROPERTY
Valence
SciTegic.value.DoubleValue
1.262

@<SCITEGIC>MOL_PROPERTY
Coulomb
SciTegic.value.DoubleValue
44.179

@<SCITEGIC>MOL_PROPERTY
VdW
SciTegic.value.DoubleValue
0.255

@<SCITEGIC>MOL_PROPERTY
VdW6
SciTegic.value.DoubleValue
-3.552

@<SCITEGIC>MOL_PROPERTY
VdW12
SciTegic.value.DoubleValue
3.807

@<SCITEGIC>MOL_PROPERTY
Bond
SciTegic.value.DoubleValue
0.125

@<SCITEGIC>MOL_PROPERTY
Angle
SciTegic.value.DoubleValue
0.616

@<SCITEGIC>MOL_PROPERTY
Pdih
SciTegic.value.DoubleValue
0.521

@<SCITEGIC>MOL_PROPERTY
Idih
SciTegic.value.DoubleValue
0.000

@<SCITEGIC>MOL_PROPERTY
Tether
SciTegic.value.DoubleValue
0.000

@<TRIPOS>MOLECULE
guest-1_confgen4.mol2 : confsearch ligand conformer 769
          17          16           1
SMALL
USER_CHARGES
 
@<TRIPOS>ATOM
       1    N1      19.230554   21.502780   21.917108 N.4        1 MOL1        -0.5891
       2    H1      18.348965   21.446997   21.398085 H          1 MOL1         0.3726
       3    H2      19.921436   21.928185   21.291480 H          1 MOL1         0.3726
       4    H3      19.080330   22.164024   22.685936 H          1 MOL1         0.3726
       5    C1      19.679983   20.145666   22.420708 C.3        1 MOL1         0.0314
       6    H4      18.913328   19.767785   23.102594 H          1 MOL1         0.0999
       7    H5      20.604227   20.285223   22.988001 H          1 MOL1         0.0999
       8    C2      19.915234   19.126690   21.290838 C.3        1 MOL1        -0.1308
       9    H6      18.989369   19.000759   20.713857 H          1 MOL1         0.1025
      10    H7      20.674547   19.516343   20.599748 H          1 MOL1         0.1025
      11    C3      20.371133   17.759520   21.846287 C.3        1 MOL1        -0.1243
      12    H8      19.612985   17.370509   22.540699 H          1 MOL1         0.1025
      13    H9      21.296137   17.885442   22.426663 H          1 MOL1         0.1025
      14    C4      20.609036   16.732125   20.718539 C.3        1 MOL1        -0.2258
      15    H10     20.931920   15.768495   21.133523 H          1 MOL1         0.1036
      16    H11     21.387827   17.078025   20.026408 H          1 MOL1         0.1036
      17    H12     19.691395   16.559078   20.141308 H          1 MOL1         0.1036
@<TRIPOS>BOND
    1     1     2    1
    2     1     3    1
    3     1     4    1
    4     1     5    1
    5     5     6    1
    6     5     7    1
    7     5     8    1
    8     8     9    1
    9     8    10    1
   10     8    11    1
   11    11    12    1
   12    11    13    1
   13    11    14    1
   14    14    15    1
   15    14    16    1
   16    14    17    1
@<TRIPOS>SUBSTRUCTURE
       1 MOL1            1 RESIDUE      1      MOL     
@<SCITEGIC>MOL_PROPERTY
VConf Rank
SciTegic.value.IntegerValue
769

@<SCITEGIC>MOL_PROPERTY
Conf_Id
SciTegic.value.IntegerValue
7

@<SCITEGIC>MOL_PROPERTY
Delta U+W
SciTegic.value.DoubleValue
0.000

@<SCITEGIC>MOL_PROPERTY
U+W
SciTegic.value.DoubleValue
-15.865

@<SCITEGIC>MOL_PROPERTY
Grad RMS
SciTegic.value.DoubleValue
0.000000

@<SCITEGIC>MOL_PROPERTY
U
SciTegic.value.DoubleValue
44.664

@<SCITEGIC>MOL_PROPERTY
W
SciTegic.value.DoubleValue
-60.529

@<SCITEGIC>MOL_PROPERTY
W(PB)
SciTegic.value.DoubleValue
-62.309

@<SCITEGIC>MOL_PROPERTY
W(SA)
SciTegic.value.DoubleValue
1.780

@<SCITEGIC>MOL_PROPERTY
Valence
SciTegic.value.DoubleValue
0.872

@<SCITEGIC>MOL_PROPERTY
Coulomb
SciTegic.value.DoubleValue
43.648

@<SCITEGIC>MOL_PROPERTY
VdW
SciTegic.value.DoubleValue
0.144

@<SCITEGIC>MOL_PROPERTY
VdW6
SciTegic.value.DoubleValue
-2.370

@<SCITEGIC>MOL_PROPERTY
VdW12
SciTegic.value.DoubleValue
2.515

@<SCITEGIC>MOL_PROPERTY
Bond
SciTegic.value.DoubleValue
0.080

@<SCITEGIC>MOL_PROPERTY
Angle
SciTegic.value.DoubleValue
0.376

@<SCITEGIC>MOL_PROPERTY
Pdih
SciTegic.value.DoubleValue
0.416

@<SCITEGIC>MOL_PROPERTY
Idih
SciTegic.value.DoubleValue
0.000

@<SCITEGIC>MOL_PROPERTY
Tether
SciTegic.value.DoubleValue
0.000

@<TRIPOS>MOLECULE
guest-1_confgen4.mol2 : confsearch ligand conformer 770
          17          16           1
SMALL
USER_CHARGES
 
@<TRIPOS>ATOM
       1    N1      18.521505   19.307748   19.670133 N.4        1 MOL1        -0.5891
       2    H1      18.312775   20.299762   19.521852 H          1 MOL1         0.3726
       3    H2      17.677070   18.877746   20.059586 H          1 MOL1         0.3726
       4    H3      18.664713   18.893448   18.743477 H          1 MOL1         0.3726
       5    C1      19.725824   19.109023   20.568732 C.3        1 MOL1         0.0314
       6    H4      20.591274   19.564042   20.079485 H          1 MOL1         0.0999
       7    H5      19.906513   18.034462   20.655384 H          1 MOL1         0.0999
       8    C2      19.543749   19.720206   21.971324 C.3        1 MOL1        -0.1308
       9    H6      19.323197   20.791286   21.871213 H          1 MOL1         0.1025
      10    H7      18.673511   19.264386   22.462040 H          1 MOL1         0.1025
      11    C3      20.793786   19.545205   22.865072 C.3        1 MOL1        -0.1243
      12    H8      20.628743   20.070294   23.816400 H          1 MOL1         0.1025
      13    H9      21.658868   20.029942   22.390892 H          1 MOL1         0.1025
      14    C4      21.124697   18.063729   23.157795 C.3        1 MOL1        -0.2258
      15    H10     20.273189   17.553965   23.627049 H          1 MOL1         0.1036
      16    H11     21.978959   17.988287   23.843034 H          1 MOL1         0.1036
      17    H12     21.387008   17.520242   22.241332 H          1 MOL1         0.1036
@<TRIPOS>BOND
    1     1     2    1
    2     1     3    1
    3     1     4    1
    4     1     5    1
    5     5     6    1
    6     5     7    1
    7     5     8    1
    8     8     9    1
    9     8    10    1
   10     8    11    1
   11    11    12    1
   12    11    13    1
   13    11    14    1
   14    14    15    1
   15    14    16    1
   16    14    17    1
@<TRIPOS>SUBSTRUCTURE
       1 MOL1            1 RESIDUE      1      MOL     
@<SCITEGIC>MOL_PROPERTY
VConf Rank
SciTegic.value.IntegerValue
770

@<SCITEGIC>MOL_PROPERTY
Conf_Id
SciTegic.value.IntegerValue
36

@<SCITEGIC>MOL_PROPERTY
Delta U+W
SciTegic.value.DoubleValue
0.275

@<SCITEGIC>MOL_PROPERTY
U+W
SciTegic.value.DoubleValue
-15.590

@<SCITEGIC>MOL_PROPERTY
Grad RMS
SciTegic.value.DoubleValue
0.000000

@<SCITEGIC>MOL_PROPERTY
U
SciTegic.value.DoubleValue
45.174

@<SCITEGIC>MOL_PROPERTY
W
SciTegic.value.DoubleValue
-60.765

@<SCITEGIC>MOL_PROPERTY
W(PB)
SciTegic.value.DoubleValue
-62.518

@<SCITEGIC>MOL_PROPERTY
W(SA)
SciTegic.value.DoubleValue
1.754

@<SCITEGIC>MOL_PROPERTY
Valence
SciTegic.value.DoubleValue
1.161

@<SCITEGIC>MOL_PROPERTY
Coulomb
SciTegic.value.DoubleValue
43.789

@<SCITEGIC>MOL_PROPERTY
VdW
SciTegic.value.DoubleValue
0.224

@<SCITEGIC>MOL_PROPERTY
VdW6
SciTegic.value.DoubleValue
-2.897

@<SCITEGIC>MOL_PROPERTY
VdW12
SciTegic.value.DoubleValue
3.121

@<SCITEGIC>MOL_PROPERTY
Bond
SciTegic.value.DoubleValue
0.100

@<SCITEGIC>MOL_PROPERTY
Angle
SciTegic.value.DoubleValue
0.500

@<SCITEGIC>MOL_PROPERTY
Pdih
SciTegic.value.DoubleValue
0.561

@<SCITEGIC>MOL_PROPERTY
Idih
SciTegic.value.DoubleValue
0.000

@<SCITEGIC>MOL_PROPERTY
Tether
SciTegic.value.DoubleValue
0.000

@<TRIPOS>MOLECULE
guest-1_confgen4.mol2 : confsearch ligand conformer 771
          17          16           1
SMALL
USER_CHARGES
 
@<TRIPOS>ATOM
       1    N1      20.423961   17.324027   22.274336 N.4        1 MOL1        -0.5891
       2    H1      20.807375   18.081864   22.844882 H          1 MOL1         0.3726
       3    H2      21.181862   16.986014   21.673660 H          1 MOL1         0.3726
       4    H3      20.184881   16.557137   22.911158 H          1 MOL1         0.3726
       5    C1      19.224894   17.780414   21.465646 C.3        1 MOL1         0.0314
       6    H4      18.426551   18.064094   22.156642 H          1 MOL1         0.0999
       7    H5      18.881342   16.917661   20.888438 H          1 MOL1         0.0999
       8    C2      19.518361   18.947262   20.499232 C.3        1 MOL1        -0.1308
       9    H6      20.467562   18.771784   19.975827 H          1 MOL1         0.1025
      10    H7      18.741340   18.942928   19.723303 H          1 MOL1         0.1025
      11    C3      19.520106   20.347522   21.164043 C.3        1 MOL1        -0.1243
      12    H8      18.542824   20.536602   21.630079 H          1 MOL1         0.1025
      13    H9      19.632172   21.104824   20.375421 H          1 MOL1         0.1025
      14    C4      20.638616   20.556961   22.209965 C.3        1 MOL1        -0.2258
      15    H10     20.455988   19.969738   23.117429 H          1 MOL1         0.1036
      16    H11     20.684272   21.611321   22.512285 H          1 MOL1         0.1036
      17    H12     21.621094   20.284563   21.802914 H          1 MOL1         0.1036
@<TRIPOS>BOND
    1     1     2    1
    2     1     3    1
    3     1     4    1
    4     1     5    1
    5     5     6    1
    6     5     7    1
    7     5     8    1
    8     8     9    1
    9     8    10    1
   10     8    11    1
   11    11    12    1
   12    11    13    1
   13    11    14    1
   14    14    15    1
   15    14    16    1
   16    14    17    1
@<TRIPOS>SUBSTRUCTURE
       1 MOL1            1 RESIDUE      1      MOL     
@<SCITEGIC>MOL_PROPERTY
VConf Rank
SciTegic.value.IntegerValue
771

@<SCITEGIC>MOL_PROPERTY
Conf_Id
SciTegic.value.IntegerValue
19

@<SCITEGIC>MOL_PROPERTY
Delta U+W
SciTegic.value.DoubleValue
2.662

@<SCITEGIC>MOL_PROPERTY
U+W
SciTegic.value.DoubleValue
-13.203

@<SCITEGIC>MOL_PROPERTY
Grad RMS
SciTegic.value.DoubleValue
0.000000

@<SCITEGIC>MOL_PROPERTY
U
SciTegic.value.DoubleValue
47.423

@<SCITEGIC>MOL_PROPERTY
W
SciTegic.value.DoubleValue
-60.626

@<SCITEGIC>MOL_PROPERTY
W(PB)
SciTegic.value.DoubleValue
-62.328

@<SCITEGIC>MOL_PROPERTY
W(SA)
SciTegic.value.DoubleValue
1.702

@<SCITEGIC>MOL_PROPERTY
Valence
SciTegic.value.DoubleValue
2.414

@<SCITEGIC>MOL_PROPERTY
Coulomb
SciTegic.value.DoubleValue
44.831

@<SCITEGIC>MOL_PROPERTY
VdW
SciTegic.value.DoubleValue
0.178

@<SCITEGIC>MOL_PROPERTY
VdW6
SciTegic.value.DoubleValue
-3.743

@<SCITEGIC>MOL_PROPERTY
VdW12
SciTegic.value.DoubleValue
3.921

@<SCITEGIC>MOL_PROPERTY
Bond
SciTegic.value.DoubleValue
0.138

@<SCITEGIC>MOL_PROPERTY
Angle
SciTegic.value.DoubleValue
0.941

@<SCITEGIC>MOL_PROPERTY
Pdih
SciTegic.value.DoubleValue
1.335

@<SCITEGIC>MOL_PROPERTY
Idih
SciTegic.value.DoubleValue
0.000

@<SCITEGIC>MOL_PROPERTY
Tether
SciTegic.value.DoubleValue
0.000

@<TRIPOS>MOLECULE
guest-1_confgen4.mol2 : confsearch ligand conformer 772
          17          16           1
SMALL
USER_CHARGES
 
@<TRIPOS>ATOM
       1    N1      19.898514   20.909216   21.802835 N.4        1 MOL1        -0.5891
       2    H1      20.395957   21.722451   22.179695 H          1 MOL1         0.3726
       3    H2      18.968469   21.233956   21.521693 H          1 MOL1         0.3726
       4    H3      20.387976   20.624065   20.950803 H          1 MOL1         0.3726
       5    C1      19.819817   19.779006   22.811038 C.3        1 MOL1         0.0314
       6    H4      19.284510   20.164882   23.682865 H          1 MOL1         0.0999
       7    H5      20.834875   19.521120   23.124810 H          1 MOL1         0.0999
       8    C2      19.096339   18.517442   22.294660 C.3        1 MOL1        -0.1308
       9    H6      18.761748   17.942152   23.168122 H          1 MOL1         0.1025
      10    H7      18.183922   18.802425   21.754280 H          1 MOL1         0.1025
      11    C3      19.973367   17.586821   21.418606 C.3        1 MOL1        -0.1243
      12    H8      19.397617   16.677454   21.195999 H          1 MOL1         0.1025
      13    H9      20.850932   17.257794   21.992751 H          1 MOL1         0.1025
      14    C4      20.436660   18.214883   20.084523 C.3        1 MOL1        -0.2258
      15    H10     19.590515   18.639503   19.528746 H          1 MOL1         0.1036
      16    H11     20.904588   17.453017   19.447529 H          1 MOL1         0.1036
      17    H12     21.183405   19.000658   20.247646 H          1 MOL1         0.1036
@<TRIPOS>BOND
    1     1     2    1
    2     1     3    1
    3     1     4    1
    4     1     5    1
    5     5     6    1
    6     5     7    1
    7     5     8    1
    8     8     9    1
    9     8    10    1
   10     8    11    1
   11    11    12    1
   12    11    13    1
   13    11    14    1
   14    14    15    1
   15    14    16    1
   16    14    17    1
@<TRIPOS>SUBSTRUCTURE
       1 MOL1            1 RESIDUE      1      MOL     
@<SCITEGIC>MOL_PROPERTY
VConf Rank
SciTegic.value.IntegerValue
772

@<SCITEGIC>MOL_PROPERTY
Conf_Id
SciTegic.value.IntegerValue
44

@<SCITEGIC>MOL_PROPERTY
Delta U+W
SciTegic.value.DoubleValue
2.712

@<SCITEGIC>MOL_PROPERTY
U+W
SciTegic.value.DoubleValue
-13.153

@<SCITEGIC>MOL_PROPERTY
Grad RMS
SciTegic.value.DoubleValue
0.000000

@<SCITEGIC>MOL_PROPERTY
U
SciTegic.value.DoubleValue
47.423

@<SCITEGIC>MOL_PROPERTY
W
SciTegic.value.DoubleValue
-60.576

@<SCITEGIC>MOL_PROPERTY
W(PB)
SciTegic.value.DoubleValue
-62.262

@<SCITEGIC>MOL_PROPERTY
W(SA)
SciTegic.value.DoubleValue
1.687

@<SCITEGIC>MOL_PROPERTY
Valence
SciTegic.value.DoubleValue
2.414

@<SCITEGIC>MOL_PROPERTY
Coulomb
SciTegic.value.DoubleValue
44.831

@<SCITEGIC>MOL_PROPERTY
VdW
SciTegic.value.DoubleValue
0.178

@<SCITEGIC>MOL_PROPERTY
VdW6
SciTegic.value.DoubleValue
-3.743

@<SCITEGIC>MOL_PROPERTY
VdW12
SciTegic.value.DoubleValue
3.922

@<SCITEGIC>MOL_PROPERTY
Bond
SciTegic.value.DoubleValue
0.138

@<SCITEGIC>MOL_PROPERTY
Angle
SciTegic.value.DoubleValue
0.941

@<SCITEGIC>MOL_PROPERTY
Pdih
SciTegic.value.DoubleValue
1.335

@<SCITEGIC>MOL_PROPERTY
Idih
SciTegic.value.DoubleValue
0.000

@<SCITEGIC>MOL_PROPERTY
Tether
SciTegic.value.DoubleValue
0.000

@<TRIPOS>MOLECULE
guest-1_confgen4.mol2 : confsearch ligand conformer 773
          17          16           1
SMALL
USER_CHARGES
 
@<TRIPOS>ATOM
       1    N1      20.069628   20.931366   22.183141 N.4        1 MOL1        -0.5891
       2    H1      19.450785   20.459485   22.848579 H          1 MOL1         0.3726
       3    H2      19.485330   21.549002   21.611740 H          1 MOL1         0.3726
       4    H3      20.693355   21.533630   22.729869 H          1 MOL1         0.3726
       5    C1      20.843138   19.940197   21.335130 C.3        1 MOL1         0.0314
       6    H4      21.464531   19.335932   22.001117 H          1 MOL1         0.0999
       7    H5      21.506470   20.510006   20.678740 H          1 MOL1         0.0999
       8    C2      19.947514   19.019067   20.481141 C.3        1 MOL1        -0.1308
       9    H6      19.357262   19.632450   19.787518 H          1 MOL1         0.1025
      10    H7      20.590447   18.384579   19.856748 H          1 MOL1         0.1025
      11    C3      18.996061   18.120591   21.310016 C.3        1 MOL1        -0.1243
      12    H8      18.391749   17.514528   20.620525 H          1 MOL1         0.1025
      13    H9      18.284322   18.741101   21.871308 H          1 MOL1         0.1025
      14    C4      19.745025   17.179502   22.281202 C.3        1 MOL1        -0.2258
      15    H10     20.462852   16.547051   21.742873 H          1 MOL1         0.1036
      16    H11     19.037991   16.517797   22.798132 H          1 MOL1         0.1036
      17    H12     20.292183   17.742478   23.047769 H          1 MOL1         0.1036
@<TRIPOS>BOND
    1     1     2    1
    2     1     3    1
    3     1     4    1
    4     1     5    1
    5     5     6    1
    6     5     7    1
    7     5     8    1
    8     8     9    1
    9     8    10    1
   10     8    11    1
   11    11    12    1
   12    11    13    1
   13    11    14    1
   14    14    15    1
   15    14    16    1
   16    14    17    1
@<TRIPOS>SUBSTRUCTURE
       1 MOL1            1 RESIDUE      1      MOL     
@<SCITEGIC>MOL_PROPERTY
VConf Rank
SciTegic.value.IntegerValue
773

@<SCITEGIC>MOL_PROPERTY
Conf_Id
SciTegic.value.IntegerValue
1

@<SCITEGIC>MOL_PROPERTY
Delta U+W
SciTegic.value.DoubleValue
0.685

@<SCITEGIC>MOL_PROPERTY
U+W
SciTegic.value.DoubleValue
-15.179

@<SCITEGIC>MOL_PROPERTY
Grad RMS
SciTegic.value.DoubleValue
0.000000

@<SCITEGIC>MOL_PROPERTY
U
SciTegic.value.DoubleValue
45.697

@<SCITEGIC>MOL_PROPERTY
W
SciTegic.value.DoubleValue
-60.876

@<SCITEGIC>MOL_PROPERTY
W(PB)
SciTegic.value.DoubleValue
-62.586

@<SCITEGIC>MOL_PROPERTY
W(SA)
SciTegic.value.DoubleValue
1.710

@<SCITEGIC>MOL_PROPERTY
Valence
SciTegic.value.DoubleValue
1.263

@<SCITEGIC>MOL_PROPERTY
Coulomb
SciTegic.value.DoubleValue
44.179

@<SCITEGIC>MOL_PROPERTY
VdW
SciTegic.value.DoubleValue
0.255

@<SCITEGIC>MOL_PROPERTY
VdW6
SciTegic.value.DoubleValue
-3.552

@<SCITEGIC>MOL_PROPERTY
VdW12
SciTegic.value.DoubleValue
3.807

@<SCITEGIC>MOL_PROPERTY
Bond
SciTegic.value.DoubleValue
0.125

@<SCITEGIC>MOL_PROPERTY
Angle
SciTegic.value.DoubleValue
0.616

@<SCITEGIC>MOL_PROPERTY
Pdih
SciTegic.value.DoubleValue
0.521

@<SCITEGIC>MOL_PROPERTY
Idih
SciTegic.value.DoubleValue
0.000

@<SCITEGIC>MOL_PROPERTY
Tether
SciTegic.value.DoubleValue
0.000

@<TRIPOS>MOLECULE
guest-1_confgen4.mol2 : confsearch ligand conformer 774
          17          16           1
SMALL
USER_CHARGES
 
@<TRIPOS>ATOM
       1    N1      18.818853   19.645245   23.129558 N.4        1 MOL1        -0.5891
       2    H1      19.367738   20.203649   23.790080 H          1 MOL1         0.3726
       3    H2      19.048571   18.662129   23.300325 H          1 MOL1         0.3726
       4    H3      17.833150   19.770301   23.381386 H          1 MOL1         0.3726
       5    C1      19.088448   20.043555   21.691321 C.3        1 MOL1         0.0314
       6    H4      18.786793   21.087833   21.572891 H          1 MOL1         0.0999
       7    H5      18.452559   19.432964   21.045080 H          1 MOL1         0.0999
       8    C2      20.563578   19.886895   21.267800 C.3        1 MOL1        -0.1308
       9    H6      20.675129   20.257085   20.240026 H          1 MOL1         0.1025
      10    H7      21.189539   20.534789   21.895616 H          1 MOL1         0.1025
      11    C3      21.090129   18.432132   21.345052 C.3        1 MOL1        -0.1243
      12    H8      21.070876   18.078316   22.384810 H          1 MOL1         0.1025
      13    H9      22.146160   18.421508   21.040764 H          1 MOL1         0.1025
      14    C4      20.299010   17.453365   20.447310 C.3        1 MOL1        -0.2258
      15    H10     20.745978   16.451403   20.482811 H          1 MOL1         0.1036
      16    H11     20.304559   17.785359   19.400975 H          1 MOL1         0.1036
      17    H12     19.254916   17.361512   20.771935 H          1 MOL1         0.1036
@<TRIPOS>BOND
    1     1     2    1
    2     1     3    1
    3     1     4    1
    4     1     5    1
    5     5     6    1
    6     5     7    1
    7     5     8    1
    8     8     9    1
    9     8    10    1
   10     8    11    1
   11    11    12    1
   12    11    13    1
   13    11    14    1
   14    14    15    1
   15    14    16    1
   16    14    17    1
@<TRIPOS>SUBSTRUCTURE
       1 MOL1            1 RESIDUE      1      MOL     
@<SCITEGIC>MOL_PROPERTY
VConf Rank
SciTegic.value.IntegerValue
774

@<SCITEGIC>MOL_PROPERTY
Conf_Id
SciTegic.value.IntegerValue
43

@<SCITEGIC>MOL_PROPERTY
Delta U+W
SciTegic.value.DoubleValue
0.642

@<SCITEGIC>MOL_PROPERTY
U+W
SciTegic.value.DoubleValue
-15.222

@<SCITEGIC>MOL_PROPERTY
Grad RMS
SciTegic.value.DoubleValue
0.000000

@<SCITEGIC>MOL_PROPERTY
U
SciTegic.value.DoubleValue
45.697

@<SCITEGIC>MOL_PROPERTY
W
SciTegic.value.DoubleValue
-60.919

@<SCITEGIC>MOL_PROPERTY
W(PB)
SciTegic.value.DoubleValue
-62.631

@<SCITEGIC>MOL_PROPERTY
W(SA)
SciTegic.value.DoubleValue
1.712

@<SCITEGIC>MOL_PROPERTY
Valence
SciTegic.value.DoubleValue
1.262

@<SCITEGIC>MOL_PROPERTY
Coulomb
SciTegic.value.DoubleValue
44.179

@<SCITEGIC>MOL_PROPERTY
VdW
SciTegic.value.DoubleValue
0.255

@<SCITEGIC>MOL_PROPERTY
VdW6
SciTegic.value.DoubleValue
-3.552

@<SCITEGIC>MOL_PROPERTY
VdW12
SciTegic.value.DoubleValue
3.807

@<SCITEGIC>MOL_PROPERTY
Bond
SciTegic.value.DoubleValue
0.125

@<SCITEGIC>MOL_PROPERTY
Angle
SciTegic.value.DoubleValue
0.616

@<SCITEGIC>MOL_PROPERTY
Pdih
SciTegic.value.DoubleValue
0.521

@<SCITEGIC>MOL_PROPERTY
Idih
SciTegic.value.DoubleValue
0.000

@<SCITEGIC>MOL_PROPERTY
Tether
SciTegic.value.DoubleValue
0.000

@<TRIPOS>MOLECULE
guest-1_confgen4.mol2 : confsearch ligand conformer 775
          17          16           1
SMALL
USER_CHARGES
 
@<TRIPOS>ATOM
       1    N1      22.461778   18.870993   21.078271 N.4        1 MOL1        -0.5891
       2    H1      22.769078   18.568121   22.007534 H          1 MOL1         0.3726
       3    H2      22.659102   19.873925   21.008359 H          1 MOL1         0.3726
       4    H3      23.068388   18.401628   20.398101 H          1 MOL1         0.3726
       5    C1      20.997936   18.561884   20.835422 C.3        1 MOL1         0.0314
       6    H4      20.867511   17.477895   20.894403 H          1 MOL1         0.0999
       7    H5      20.749259   18.882018   19.819943 H          1 MOL1         0.0999
       8    C2      20.057369   19.251643   21.840324 C.3        1 MOL1        -0.1308
       9    H6      20.320077   18.939745   22.859978 H          1 MOL1         0.1025
      10    H7      20.202122   20.339031   21.789112 H          1 MOL1         0.1025
      11    C3      18.577665   18.910742   21.557865 C.3        1 MOL1        -0.1243
      12    H8      18.432821   17.822138   21.605712 H          1 MOL1         0.1025
      13    H9      18.314984   19.219778   20.536190 H          1 MOL1         0.1025
      14    C4      17.628146   19.599147   22.562090 C.3        1 MOL1        -0.2258
      15    H10     16.582744   19.344481   22.344539 H          1 MOL1         0.1036
      16    H11     17.725305   20.691555   22.512983 H          1 MOL1         0.1036
      17    H12     17.844121   19.282922   23.590955 H          1 MOL1         0.1036
@<TRIPOS>BOND
    1     1     2    1
    2     1     3    1
    3     1     4    1
    4     1     5    1
    5     5     6    1
    6     5     7    1
    7     5     8    1
    8     8     9    1
    9     8    10    1
   10     8    11    1
   11    11    12    1
   12    11    13    1
   13    11    14    1
   14    14    15    1
   15    14    16    1
   16    14    17    1
@<TRIPOS>SUBSTRUCTURE
       1 MOL1            1 RESIDUE      1      MOL     
@<SCITEGIC>MOL_PROPERTY
VConf Rank
SciTegic.value.IntegerValue
775

@<SCITEGIC>MOL_PROPERTY
Conf_Id
SciTegic.value.IntegerValue
7

@<SCITEGIC>MOL_PROPERTY
Delta U+W
SciTegic.value.DoubleValue
0.000

@<SCITEGIC>MOL_PROPERTY
U+W
SciTegic.value.DoubleValue
-15.865

@<SCITEGIC>MOL_PROPERTY
Grad RMS
SciTegic.value.DoubleValue
0.000000

@<SCITEGIC>MOL_PROPERTY
U
SciTegic.value.DoubleValue
44.664

@<SCITEGIC>MOL_PROPERTY
W
SciTegic.value.DoubleValue
-60.529

@<SCITEGIC>MOL_PROPERTY
W(PB)
SciTegic.value.DoubleValue
-62.309

@<SCITEGIC>MOL_PROPERTY
W(SA)
SciTegic.value.DoubleValue
1.780

@<SCITEGIC>MOL_PROPERTY
Valence
SciTegic.value.DoubleValue
0.872

@<SCITEGIC>MOL_PROPERTY
Coulomb
SciTegic.value.DoubleValue
43.648

@<SCITEGIC>MOL_PROPERTY
VdW
SciTegic.value.DoubleValue
0.144

@<SCITEGIC>MOL_PROPERTY
VdW6
SciTegic.value.DoubleValue
-2.370

@<SCITEGIC>MOL_PROPERTY
VdW12
SciTegic.value.DoubleValue
2.515

@<SCITEGIC>MOL_PROPERTY
Bond
SciTegic.value.DoubleValue
0.080

@<SCITEGIC>MOL_PROPERTY
Angle
SciTegic.value.DoubleValue
0.376

@<SCITEGIC>MOL_PROPERTY
Pdih
SciTegic.value.DoubleValue
0.416

@<SCITEGIC>MOL_PROPERTY
Idih
SciTegic.value.DoubleValue
0.000

@<SCITEGIC>MOL_PROPERTY
Tether
SciTegic.value.DoubleValue
0.000

@<TRIPOS>MOLECULE
guest-1_confgen4.mol2 : confsearch ligand conformer 776
          17          16           1
SMALL
USER_CHARGES
 
@<TRIPOS>ATOM
       1    N1      19.793902   21.358765   20.789685 N.4        1 MOL1        -0.5891
       2    H1      18.851469   21.517572   20.420565 H          1 MOL1         0.3726
       3    H2      20.417772   21.249509   19.984393 H          1 MOL1         0.3726
       4    H3      20.074354   22.221532   21.266994 H          1 MOL1         0.3726
       5    C1      19.846595   20.159715   21.715352 C.3        1 MOL1         0.0314
       6    H4      19.183916   20.357221   22.562261 H          1 MOL1         0.0999
       7    H5      20.868625   20.071562   22.092874 H          1 MOL1         0.0999
       8    C2      19.430872   18.844486   21.028836 C.3        1 MOL1        -0.1308
       9    H6      18.418595   18.957195   20.618386 H          1 MOL1         0.1025
      10    H7      20.095416   18.646995   20.177209 H          1 MOL1         0.1025
      11    C3      19.451036   17.635808   21.993562 C.3        1 MOL1        -0.1243
      12    H8      19.069310   16.750923   21.465125 H          1 MOL1         0.1025
      13    H9      18.760998   17.817714   22.829588 H          1 MOL1         0.1025
      14    C4      20.862108   17.324931   22.543281 C.3        1 MOL1        -0.2258
      15    H10     21.573412   17.144903   21.726726 H          1 MOL1         0.1036
      16    H11     20.840521   16.425803   23.172652 H          1 MOL1         0.1036
      17    H12     21.246481   18.149138   23.157310 H          1 MOL1         0.1036
@<TRIPOS>BOND
    1     1     2    1
    2     1     3    1
    3     1     4    1
    4     1     5    1
    5     5     6    1
    6     5     7    1
    7     5     8    1
    8     8     9    1
    9     8    10    1
   10     8    11    1
   11    11    12    1
   12    11    13    1
   13    11    14    1
   14    14    15    1
   15    14    16    1
   16    14    17    1
@<TRIPOS>SUBSTRUCTURE
       1 MOL1            1 RESIDUE      1      MOL     
@<SCITEGIC>MOL_PROPERTY
VConf Rank
SciTegic.value.IntegerValue
776

@<SCITEGIC>MOL_PROPERTY
Conf_Id
SciTegic.value.IntegerValue
36

@<SCITEGIC>MOL_PROPERTY
Delta U+W
SciTegic.value.DoubleValue
0.275

@<SCITEGIC>MOL_PROPERTY
U+W
SciTegic.value.DoubleValue
-15.590

@<SCITEGIC>MOL_PROPERTY
Grad RMS
SciTegic.value.DoubleValue
0.000000

@<SCITEGIC>MOL_PROPERTY
U
SciTegic.value.DoubleValue
45.174

@<SCITEGIC>MOL_PROPERTY
W
SciTegic.value.DoubleValue
-60.765

@<SCITEGIC>MOL_PROPERTY
W(PB)
SciTegic.value.DoubleValue
-62.518

@<SCITEGIC>MOL_PROPERTY
W(SA)
SciTegic.value.DoubleValue
1.754

@<SCITEGIC>MOL_PROPERTY
Valence
SciTegic.value.DoubleValue
1.161

@<SCITEGIC>MOL_PROPERTY
Coulomb
SciTegic.value.DoubleValue
43.789

@<SCITEGIC>MOL_PROPERTY
VdW
SciTegic.value.DoubleValue
0.224

@<SCITEGIC>MOL_PROPERTY
VdW6
SciTegic.value.DoubleValue
-2.897

@<SCITEGIC>MOL_PROPERTY
VdW12
SciTegic.value.DoubleValue
3.121

@<SCITEGIC>MOL_PROPERTY
Bond
SciTegic.value.DoubleValue
0.100

@<SCITEGIC>MOL_PROPERTY
Angle
SciTegic.value.DoubleValue
0.500

@<SCITEGIC>MOL_PROPERTY
Pdih
SciTegic.value.DoubleValue
0.561

@<SCITEGIC>MOL_PROPERTY
Idih
SciTegic.value.DoubleValue
0.000

@<SCITEGIC>MOL_PROPERTY
Tether
SciTegic.value.DoubleValue
0.000

@<TRIPOS>MOLECULE
guest-1_confgen4.mol2 : confsearch ligand conformer 777
          17          16           1
SMALL
USER_CHARGES
 
@<TRIPOS>ATOM
       1    N1      21.171930   19.875603   20.531667 N.4        1 MOL1        -0.5891
       2    H1      21.161179   20.256735   21.481123 H          1 MOL1         0.3726
       3    H2      20.628383   20.515019   19.944144 H          1 MOL1         0.3726
       4    H3      22.140844   19.917957   20.199652 H          1 MOL1         0.3726
       5    C1      20.621320   18.463223   20.486499 C.3        1 MOL1         0.0314
       6    H4      21.277409   17.814890   21.073452 H          1 MOL1         0.0999
       7    H5      20.666811   18.135441   19.444372 H          1 MOL1         0.0999
       8    C2      19.169087   18.331963   20.991872 C.3        1 MOL1        -0.1308
       9    H6      18.555186   19.147113   20.586427 H          1 MOL1         0.1025
      10    H7      18.752142   17.405277   20.575632 H          1 MOL1         0.1025
      11    C3      19.028647   18.267053   22.534198 C.3        1 MOL1        -0.1243
      12    H8      19.596564   17.409335   22.921253 H          1 MOL1         0.1025
      13    H9      17.975373   18.068768   22.777687 H          1 MOL1         0.1025
      14    C4      19.470549   19.551994   23.270765 C.3        1 MOL1        -0.2258
      15    H10     20.558195   19.683478   23.233154 H          1 MOL1         0.1036
      16    H11     19.188913   19.499061   24.330499 H          1 MOL1         0.1036
      17    H12     18.990665   20.441806   22.842864 H          1 MOL1         0.1036
@<TRIPOS>BOND
    1     1     2    1
    2     1     3    1
    3     1     4    1
    4     1     5    1
    5     5     6    1
    6     5     7    1
    7     5     8    1
    8     8     9    1
    9     8    10    1
   10     8    11    1
   11    11    12    1
   12    11    13    1
   13    11    14    1
   14    14    15    1
   15    14    16    1
   16    14    17    1
@<TRIPOS>SUBSTRUCTURE
       1 MOL1            1 RESIDUE      1      MOL     
@<SCITEGIC>MOL_PROPERTY
VConf Rank
SciTegic.value.IntegerValue
777

@<SCITEGIC>MOL_PROPERTY
Conf_Id
SciTegic.value.IntegerValue
19

@<SCITEGIC>MOL_PROPERTY
Delta U+W
SciTegic.value.DoubleValue
2.662

@<SCITEGIC>MOL_PROPERTY
U+W
SciTegic.value.DoubleValue
-13.203

@<SCITEGIC>MOL_PROPERTY
Grad RMS
SciTegic.value.DoubleValue
0.000000

@<SCITEGIC>MOL_PROPERTY
U
SciTegic.value.DoubleValue
47.423

@<SCITEGIC>MOL_PROPERTY
W
SciTegic.value.DoubleValue
-60.626

@<SCITEGIC>MOL_PROPERTY
W(PB)
SciTegic.value.DoubleValue
-62.328

@<SCITEGIC>MOL_PROPERTY
W(SA)
SciTegic.value.DoubleValue
1.702

@<SCITEGIC>MOL_PROPERTY
Valence
SciTegic.value.DoubleValue
2.414

@<SCITEGIC>MOL_PROPERTY
Coulomb
SciTegic.value.DoubleValue
44.831

@<SCITEGIC>MOL_PROPERTY
VdW
SciTegic.value.DoubleValue
0.178

@<SCITEGIC>MOL_PROPERTY
VdW6
SciTegic.value.DoubleValue
-3.743

@<SCITEGIC>MOL_PROPERTY
VdW12
SciTegic.value.DoubleValue
3.921

@<SCITEGIC>MOL_PROPERTY
Bond
SciTegic.value.DoubleValue
0.138

@<SCITEGIC>MOL_PROPERTY
Angle
SciTegic.value.DoubleValue
0.941

@<SCITEGIC>MOL_PROPERTY
Pdih
SciTegic.value.DoubleValue
1.335

@<SCITEGIC>MOL_PROPERTY
Idih
SciTegic.value.DoubleValue
0.000

@<SCITEGIC>MOL_PROPERTY
Tether
SciTegic.value.DoubleValue
0.000

@<TRIPOS>MOLECULE
guest-1_confgen4.mol2 : confsearch ligand conformer 778
          17          16           1
SMALL
USER_CHARGES
 
@<TRIPOS>ATOM
       1    N1      19.992547   17.488543   22.584300 N.4        1 MOL1        -0.5891
       2    H1      19.978079   17.060737   23.515749 H          1 MOL1         0.3726
       3    H2      20.319147   16.769223   21.932080 H          1 MOL1         0.3726
       4    H3      19.023549   17.702846   22.335384 H          1 MOL1         0.3726
       5    C1      20.869782   18.725051   22.544959 C.3        1 MOL1         0.0314
       6    H4      21.879996   18.409312   22.819394 H          1 MOL1         0.0999
       7    H5      20.516829   19.426604   23.305583 H          1 MOL1         0.0999
       8    C2      20.917857   19.425339   21.170588 C.3        1 MOL1        -0.1308
       9    H6      21.829225   20.037058   21.138134 H          1 MOL1         0.1025
      10    H7      21.027446   18.679180   20.372486 H          1 MOL1         0.1025
      11    C3      19.710668   20.353006   20.879325 C.3        1 MOL1        -0.1243
      12    H8      19.897504   20.876621   19.931216 H          1 MOL1         0.1025
      13    H9      19.649927   21.133665   21.650625 H          1 MOL1         0.1025
      14    C4      18.352647   19.621921   20.778460 C.3        1 MOL1        -0.2258
      15    H10     18.407194   18.773694   20.083703 H          1 MOL1         0.1036
      16    H11     17.578587   20.306492   20.407853 H          1 MOL1         0.1036
      17    H12     18.018227   19.257553   21.756764 H          1 MOL1         0.1036
@<TRIPOS>BOND
    1     1     2    1
    2     1     3    1
    3     1     4    1
    4     1     5    1
    5     5     6    1
    6     5     7    1
    7     5     8    1
    8     8     9    1
    9     8    10    1
   10     8    11    1
   11    11    12    1
   12    11    13    1
   13    11    14    1
   14    14    15    1
   15    14    16    1
   16    14    17    1
@<TRIPOS>SUBSTRUCTURE
       1 MOL1            1 RESIDUE      1      MOL     
@<SCITEGIC>MOL_PROPERTY
VConf Rank
SciTegic.value.IntegerValue
778

@<SCITEGIC>MOL_PROPERTY
Conf_Id
SciTegic.value.IntegerValue
44

@<SCITEGIC>MOL_PROPERTY
Delta U+W
SciTegic.value.DoubleValue
2.712

@<SCITEGIC>MOL_PROPERTY
U+W
SciTegic.value.DoubleValue
-13.153

@<SCITEGIC>MOL_PROPERTY
Grad RMS
SciTegic.value.DoubleValue
0.000000

@<SCITEGIC>MOL_PROPERTY
U
SciTegic.value.DoubleValue
47.423

@<SCITEGIC>MOL_PROPERTY
W
SciTegic.value.DoubleValue
-60.576

@<SCITEGIC>MOL_PROPERTY
W(PB)
SciTegic.value.DoubleValue
-62.262

@<SCITEGIC>MOL_PROPERTY
W(SA)
SciTegic.value.DoubleValue
1.687

@<SCITEGIC>MOL_PROPERTY
Valence
SciTegic.value.DoubleValue
2.414

@<SCITEGIC>MOL_PROPERTY
Coulomb
SciTegic.value.DoubleValue
44.831

@<SCITEGIC>MOL_PROPERTY
VdW
SciTegic.value.DoubleValue
0.178

@<SCITEGIC>MOL_PROPERTY
VdW6
SciTegic.value.DoubleValue
-3.743

@<SCITEGIC>MOL_PROPERTY
VdW12
SciTegic.value.DoubleValue
3.922

@<SCITEGIC>MOL_PROPERTY
Bond
SciTegic.value.DoubleValue
0.138

@<SCITEGIC>MOL_PROPERTY
Angle
SciTegic.value.DoubleValue
0.941

@<SCITEGIC>MOL_PROPERTY
Pdih
SciTegic.value.DoubleValue
1.335

@<SCITEGIC>MOL_PROPERTY
Idih
SciTegic.value.DoubleValue
0.000

@<SCITEGIC>MOL_PROPERTY
Tether
SciTegic.value.DoubleValue
0.000

@<TRIPOS>MOLECULE
guest-1_confgen4.mol2 : confsearch ligand conformer 779
          17          16           1
SMALL
USER_CHARGES
 
@<TRIPOS>ATOM
       1    N1      20.518305   18.486850   19.787593 N.4        1 MOL1        -0.5891
       2    H1      19.611180   18.041648   19.953022 H          1 MOL1         0.3726
       3    H2      21.229736   17.751308   19.834735 H          1 MOL1         0.3726
       4    H3      20.510625   18.832042   18.822476 H          1 MOL1         0.3726
       5    C1      20.787894   19.599332   20.782361 C.3        1 MOL1         0.0314
       6    H4      20.012955   20.360275   20.658911 H          1 MOL1         0.0999
       7    H5      21.749390   20.051303   20.523933 H          1 MOL1         0.0999
       8    C2      20.823839   19.126786   22.250465 C.3        1 MOL1        -0.1308
       9    H6      21.631539   18.393099   22.373243 H          1 MOL1         0.1025
      10    H7      21.087438   19.981066   22.888059 H          1 MOL1         0.1025
      11    C3      19.491453   18.512467   22.747369 C.3        1 MOL1        -0.1243
      12    H8      19.616610   18.193686   23.791696 H          1 MOL1         0.1025
      13    H9      19.260093   17.601819   22.178293 H          1 MOL1         0.1025
      14    C4      18.302012   19.496183   22.661747 C.3        1 MOL1        -0.2258
      15    H10     18.509040   20.415602   23.224664 H          1 MOL1         0.1036
      16    H11     17.395914   19.042384   23.083673 H          1 MOL1         0.1036
      17    H12     18.080620   19.772914   21.623309 H          1 MOL1         0.1036
@<TRIPOS>BOND
    1     1     2    1
    2     1     3    1
    3     1     4    1
    4     1     5    1
    5     5     6    1
    6     5     7    1
    7     5     8    1
    8     8     9    1
    9     8    10    1
   10     8    11    1
   11    11    12    1
   12    11    13    1
   13    11    14    1
   14    14    15    1
   15    14    16    1
   16    14    17    1
@<TRIPOS>SUBSTRUCTURE
       1 MOL1            1 RESIDUE      1      MOL     
@<SCITEGIC>MOL_PROPERTY
VConf Rank
SciTegic.value.IntegerValue
779

@<SCITEGIC>MOL_PROPERTY
Conf_Id
SciTegic.value.IntegerValue
1

@<SCITEGIC>MOL_PROPERTY
Delta U+W
SciTegic.value.DoubleValue
0.685

@<SCITEGIC>MOL_PROPERTY
U+W
SciTegic.value.DoubleValue
-15.179

@<SCITEGIC>MOL_PROPERTY
Grad RMS
SciTegic.value.DoubleValue
0.000000

@<SCITEGIC>MOL_PROPERTY
U
SciTegic.value.DoubleValue
45.697

@<SCITEGIC>MOL_PROPERTY
W
SciTegic.value.DoubleValue
-60.876

@<SCITEGIC>MOL_PROPERTY
W(PB)
SciTegic.value.DoubleValue
-62.586

@<SCITEGIC>MOL_PROPERTY
W(SA)
SciTegic.value.DoubleValue
1.710

@<SCITEGIC>MOL_PROPERTY
Valence
SciTegic.value.DoubleValue
1.263

@<SCITEGIC>MOL_PROPERTY
Coulomb
SciTegic.value.DoubleValue
44.179

@<SCITEGIC>MOL_PROPERTY
VdW
SciTegic.value.DoubleValue
0.255

@<SCITEGIC>MOL_PROPERTY
VdW6
SciTegic.value.DoubleValue
-3.552

@<SCITEGIC>MOL_PROPERTY
VdW12
SciTegic.value.DoubleValue
3.807

@<SCITEGIC>MOL_PROPERTY
Bond
SciTegic.value.DoubleValue
0.125

@<SCITEGIC>MOL_PROPERTY
Angle
SciTegic.value.DoubleValue
0.616

@<SCITEGIC>MOL_PROPERTY
Pdih
SciTegic.value.DoubleValue
0.521

@<SCITEGIC>MOL_PROPERTY
Idih
SciTegic.value.DoubleValue
0.000

@<SCITEGIC>MOL_PROPERTY
Tether
SciTegic.value.DoubleValue
0.000

@<TRIPOS>MOLECULE
guest-1_confgen4.mol2 : confsearch ligand conformer 780
          17          16           1
SMALL
USER_CHARGES
 
@<TRIPOS>ATOM
       1    N1      18.027665   19.160723   22.170212 N.4        1 MOL1        -0.5891
       2    H1      17.797495   20.103872   22.497119 H          1 MOL1         0.3726
       3    H2      18.537829   18.694555   22.925771 H          1 MOL1         0.3726
       4    H3      17.140269   18.660709   22.055400 H          1 MOL1         0.3726
       5    C1      18.830236   19.187962   20.883745 C.3        1 MOL1         0.0314
       6    H4      18.213149   19.663148   20.116321 H          1 MOL1         0.0999
       7    H5      19.014947   18.155221   20.576936 H          1 MOL1         0.0999
       8    C2      20.170224   19.943255   21.001585 C.3        1 MOL1        -0.1308
       9    H6      20.648240   19.966780   20.013278 H          1 MOL1         0.1025
      10    H7      19.971890   20.989346   21.270109 H          1 MOL1         0.1025
      11    C3      21.152900   19.326527   22.028013 C.3        1 MOL1        -0.1243
      12    H8      20.725720   19.379475   23.038641 H          1 MOL1         0.1025
      13    H9      22.067041   19.936137   22.053014 H          1 MOL1         0.1025
      14    C4      21.533096   17.864584   21.699423 C.3        1 MOL1        -0.2258
      15    H10     22.278877   17.491007   22.413018 H          1 MOL1         0.1036
      16    H11     21.964108   17.785645   20.692912 H          1 MOL1         0.1036
      17    H12     20.662300   17.199096   21.752245 H          1 MOL1         0.1036
@<TRIPOS>BOND
    1     1     2    1
    2     1     3    1
    3     1     4    1
    4     1     5    1
    5     5     6    1
    6     5     7    1
    7     5     8    1
    8     8     9    1
    9     8    10    1
   10     8    11    1
   11    11    12    1
   12    11    13    1
   13    11    14    1
   14    14    15    1
   15    14    16    1
   16    14    17    1
@<TRIPOS>SUBSTRUCTURE
       1 MOL1            1 RESIDUE      1      MOL     
@<SCITEGIC>MOL_PROPERTY
VConf Rank
SciTegic.value.IntegerValue
780

@<SCITEGIC>MOL_PROPERTY
Conf_Id
SciTegic.value.IntegerValue
43

@<SCITEGIC>MOL_PROPERTY
Delta U+W
SciTegic.value.DoubleValue
0.642

@<SCITEGIC>MOL_PROPERTY
U+W
SciTegic.value.DoubleValue
-15.222

@<SCITEGIC>MOL_PROPERTY
Grad RMS
SciTegic.value.DoubleValue
0.000000

@<SCITEGIC>MOL_PROPERTY
U
SciTegic.value.DoubleValue
45.697

@<SCITEGIC>MOL_PROPERTY
W
SciTegic.value.DoubleValue
-60.919

@<SCITEGIC>MOL_PROPERTY
W(PB)
SciTegic.value.DoubleValue
-62.631

@<SCITEGIC>MOL_PROPERTY
W(SA)
SciTegic.value.DoubleValue
1.712

@<SCITEGIC>MOL_PROPERTY
Valence
SciTegic.value.DoubleValue
1.262

@<SCITEGIC>MOL_PROPERTY
Coulomb
SciTegic.value.DoubleValue
44.179

@<SCITEGIC>MOL_PROPERTY
VdW
SciTegic.value.DoubleValue
0.255

@<SCITEGIC>MOL_PROPERTY
VdW6
SciTegic.value.DoubleValue
-3.552

@<SCITEGIC>MOL_PROPERTY
VdW12
SciTegic.value.DoubleValue
3.807

@<SCITEGIC>MOL_PROPERTY
Bond
SciTegic.value.DoubleValue
0.125

@<SCITEGIC>MOL_PROPERTY
Angle
SciTegic.value.DoubleValue
0.616

@<SCITEGIC>MOL_PROPERTY
Pdih
SciTegic.value.DoubleValue
0.521

@<SCITEGIC>MOL_PROPERTY
Idih
SciTegic.value.DoubleValue
0.000

@<SCITEGIC>MOL_PROPERTY
Tether
SciTegic.value.DoubleValue
0.000

@<TRIPOS>MOLECULE
guest-1_confgen4.mol2 : confsearch ligand conformer 781
          17          16           1
SMALL
USER_CHARGES
 
@<TRIPOS>ATOM
       1    N1      20.076957   21.589679   21.178946 N.4        1 MOL1        -0.5891
       2    H1      21.064355   21.631958   20.908845 H          1 MOL1         0.3726
       3    H2      20.019467   21.890782   22.156560 H          1 MOL1         0.3726
       4    H3      19.586906   22.297046   20.621820 H          1 MOL1         0.3726
       5    C1      19.491139   20.206682   20.975244 C.3        1 MOL1         0.0314
       6    H4      19.557748   19.965262   19.910913 H          1 MOL1         0.0999
       7    H5      18.434137   20.243590   21.252569 H          1 MOL1         0.0999
       8    C2      20.204311   19.118441   21.798273 C.3        1 MOL1        -0.1308
       9    H6      21.268513   19.094830   21.528259 H          1 MOL1         0.1025
      10    H7      20.148640   19.372120   22.865296 H          1 MOL1         0.1025
      11    C3      19.577444   17.726803   21.561835 C.3        1 MOL1        -0.1243
      12    H8      19.629881   17.473741   20.493408 H          1 MOL1         0.1025
      13    H9      18.511403   17.750664   21.828878 H          1 MOL1         0.1025
      14    C4      20.287796   16.629957   22.384200 C.3        1 MOL1        -0.2258
      15    H10     19.828030   15.649863   22.202321 H          1 MOL1         0.1036
      16    H11     20.222178   16.837644   23.460196 H          1 MOL1         0.1036
      17    H12     21.349504   16.558584   22.114220 H          1 MOL1         0.1036
@<TRIPOS>BOND
    1     1     2    1
    2     1     3    1
    3     1     4    1
    4     1     5    1
    5     5     6    1
    6     5     7    1
    7     5     8    1
    8     8     9    1
    9     8    10    1
   10     8    11    1
   11    11    12    1
   12    11    13    1
   13    11    14    1
   14    14    15    1
   15    14    16    1
   16    14    17    1
@<TRIPOS>SUBSTRUCTURE
       1 MOL1            1 RESIDUE      1      MOL     
@<SCITEGIC>MOL_PROPERTY
VConf Rank
SciTegic.value.IntegerValue
781

@<SCITEGIC>MOL_PROPERTY
Conf_Id
SciTegic.value.IntegerValue
7

@<SCITEGIC>MOL_PROPERTY
Delta U+W
SciTegic.value.DoubleValue
0.000

@<SCITEGIC>MOL_PROPERTY
U+W
SciTegic.value.DoubleValue
-15.865

@<SCITEGIC>MOL_PROPERTY
Grad RMS
SciTegic.value.DoubleValue
0.000000

@<SCITEGIC>MOL_PROPERTY
U
SciTegic.value.DoubleValue
44.664

@<SCITEGIC>MOL_PROPERTY
W
SciTegic.value.DoubleValue
-60.529

@<SCITEGIC>MOL_PROPERTY
W(PB)
SciTegic.value.DoubleValue
-62.309

@<SCITEGIC>MOL_PROPERTY
W(SA)
SciTegic.value.DoubleValue
1.780

@<SCITEGIC>MOL_PROPERTY
Valence
SciTegic.value.DoubleValue
0.872

@<SCITEGIC>MOL_PROPERTY
Coulomb
SciTegic.value.DoubleValue
43.648

@<SCITEGIC>MOL_PROPERTY
VdW
SciTegic.value.DoubleValue
0.144

@<SCITEGIC>MOL_PROPERTY
VdW6
SciTegic.value.DoubleValue
-2.370

@<SCITEGIC>MOL_PROPERTY
VdW12
SciTegic.value.DoubleValue
2.515

@<SCITEGIC>MOL_PROPERTY
Bond
SciTegic.value.DoubleValue
0.080

@<SCITEGIC>MOL_PROPERTY
Angle
SciTegic.value.DoubleValue
0.376

@<SCITEGIC>MOL_PROPERTY
Pdih
SciTegic.value.DoubleValue
0.416

@<SCITEGIC>MOL_PROPERTY
Idih
SciTegic.value.DoubleValue
0.000

@<SCITEGIC>MOL_PROPERTY
Tether
SciTegic.value.DoubleValue
0.000

@<TRIPOS>MOLECULE
guest-1_confgen4.mol2 : confsearch ligand conformer 782
          17          16           1
SMALL
USER_CHARGES
 
@<TRIPOS>ATOM
       1    N1      20.425968   18.251652   19.414124 N.4        1 MOL1        -0.5891
       2    H1      21.173201   17.554844   19.489953 H          1 MOL1         0.3726
       3    H2      20.846730   19.103157   19.030007 H          1 MOL1         0.3726
       4    H3      19.766581   17.903521   18.710664 H          1 MOL1         0.3726
       5    C1      19.748025   18.504479   20.745975 C.3        1 MOL1         0.0314
       6    H4      19.298030   17.565589   21.079739 H          1 MOL1         0.0999
       7    H5      18.946748   19.229808   20.582601 H          1 MOL1         0.0999
       8    C2      20.711799   19.029497   21.827388 C.3        1 MOL1        -0.1308
       9    H6      21.534013   18.312895   21.955155 H          1 MOL1         0.1025
      10    H7      21.165021   19.971629   21.491434 H          1 MOL1         0.1025
      11    C3      20.016436   19.246074   23.191781 C.3        1 MOL1        -0.1243
      12    H8      20.771139   19.541631   23.934110 H          1 MOL1         0.1025
      13    H9      19.590872   18.296335   23.545438 H          1 MOL1         0.1025
      14    C4      18.909581   20.324173   23.141482 C.3        1 MOL1        -0.2258
      15    H10     19.307871   21.282996   22.784903 H          1 MOL1         0.1036
      16    H11     18.486562   20.488435   24.141022 H          1 MOL1         0.1036
      17    H12     18.086806   20.027059   22.479021 H          1 MOL1         0.1036
@<TRIPOS>BOND
    1     1     2    1
    2     1     3    1
    3     1     4    1
    4     1     5    1
    5     5     6    1
    6     5     7    1
    7     5     8    1
    8     8     9    1
    9     8    10    1
   10     8    11    1
   11    11    12    1
   12    11    13    1
   13    11    14    1
   14    14    15    1
   15    14    16    1
   16    14    17    1
@<TRIPOS>SUBSTRUCTURE
       1 MOL1            1 RESIDUE      1      MOL     
@<SCITEGIC>MOL_PROPERTY
VConf Rank
SciTegic.value.IntegerValue
782

@<SCITEGIC>MOL_PROPERTY
Conf_Id
SciTegic.value.IntegerValue
36

@<SCITEGIC>MOL_PROPERTY
Delta U+W
SciTegic.value.DoubleValue
0.275

@<SCITEGIC>MOL_PROPERTY
U+W
SciTegic.value.DoubleValue
-15.590

@<SCITEGIC>MOL_PROPERTY
Grad RMS
SciTegic.value.DoubleValue
0.000000

@<SCITEGIC>MOL_PROPERTY
U
SciTegic.value.DoubleValue
45.174

@<SCITEGIC>MOL_PROPERTY
W
SciTegic.value.DoubleValue
-60.765

@<SCITEGIC>MOL_PROPERTY
W(PB)
SciTegic.value.DoubleValue
-62.518

@<SCITEGIC>MOL_PROPERTY
W(SA)
SciTegic.value.DoubleValue
1.754

@<SCITEGIC>MOL_PROPERTY
Valence
SciTegic.value.DoubleValue
1.161

@<SCITEGIC>MOL_PROPERTY
Coulomb
SciTegic.value.DoubleValue
43.789

@<SCITEGIC>MOL_PROPERTY
VdW
SciTegic.value.DoubleValue
0.224

@<SCITEGIC>MOL_PROPERTY
VdW6
SciTegic.value.DoubleValue
-2.897

@<SCITEGIC>MOL_PROPERTY
VdW12
SciTegic.value.DoubleValue
3.121

@<SCITEGIC>MOL_PROPERTY
Bond
SciTegic.value.DoubleValue
0.100

@<SCITEGIC>MOL_PROPERTY
Angle
SciTegic.value.DoubleValue
0.500

@<SCITEGIC>MOL_PROPERTY
Pdih
SciTegic.value.DoubleValue
0.561

@<SCITEGIC>MOL_PROPERTY
Idih
SciTegic.value.DoubleValue
0.000

@<SCITEGIC>MOL_PROPERTY
Tether
SciTegic.value.DoubleValue
0.000

@<TRIPOS>MOLECULE
guest-1_confgen4.mol2 : confsearch ligand conformer 783
          17          16           1
SMALL
USER_CHARGES
 
@<TRIPOS>ATOM
       1    N1      20.931604   17.917168   22.751879 N.4        1 MOL1        -0.5891
       2    H1      21.533327   18.558024   22.228354 H          1 MOL1         0.3726
       3    H2      20.999950   17.001254   22.298106 H          1 MOL1         0.3726
       4    H3      21.338401   17.816494   23.687402 H          1 MOL1         0.3726
       5    C1      19.499135   18.411846   22.809822 C.3        1 MOL1         0.0314
       6    H4      19.478695   19.355193   23.362072 H          1 MOL1         0.0999
       7    H5      18.928821   17.673889   23.380523 H          1 MOL1         0.0999
       8    C2      18.836769   18.600613   21.428789 C.3        1 MOL1        -0.1308
       9    H6      19.070336   17.745892   20.780231 H          1 MOL1         0.1025
      10    H7      17.748463   18.580082   21.573754 H          1 MOL1         0.1025
      11    C3      19.197960   19.930487   20.719084 C.3        1 MOL1        -0.1243
      12    H8      18.901437   20.779216   21.351347 H          1 MOL1         0.1025
      13    H9      18.595266   20.008763   19.803321 H          1 MOL1         0.1025
      14    C4      20.689945   20.067556   20.339511 C.3        1 MOL1        -0.2258
      15    H10     21.319728   20.204803   21.226197 H          1 MOL1         0.1036
      16    H11     20.840327   20.945965   19.698467 H          1 MOL1         0.1036
      17    H12     21.043034   19.187470   19.786402 H          1 MOL1         0.1036
@<TRIPOS>BOND
    1     1     2    1
    2     1     3    1
    3     1     4    1
    4     1     5    1
    5     5     6    1
    6     5     7    1
    7     5     8    1
    8     8     9    1
    9     8    10    1
   10     8    11    1
   11    11    12    1
   12    11    13    1
   13    11    14    1
   14    14    15    1
   15    14    16    1
   16    14    17    1
@<TRIPOS>SUBSTRUCTURE
       1 MOL1            1 RESIDUE      1      MOL     
@<SCITEGIC>MOL_PROPERTY
VConf Rank
SciTegic.value.IntegerValue
783

@<SCITEGIC>MOL_PROPERTY
Conf_Id
SciTegic.value.IntegerValue
19

@<SCITEGIC>MOL_PROPERTY
Delta U+W
SciTegic.value.DoubleValue
2.662

@<SCITEGIC>MOL_PROPERTY
U+W
SciTegic.value.DoubleValue
-13.203

@<SCITEGIC>MOL_PROPERTY
Grad RMS
SciTegic.value.DoubleValue
0.000000

@<SCITEGIC>MOL_PROPERTY
U
SciTegic.value.DoubleValue
47.423

@<SCITEGIC>MOL_PROPERTY
W
SciTegic.value.DoubleValue
-60.626

@<SCITEGIC>MOL_PROPERTY
W(PB)
SciTegic.value.DoubleValue
-62.328

@<SCITEGIC>MOL_PROPERTY
W(SA)
SciTegic.value.DoubleValue
1.702

@<SCITEGIC>MOL_PROPERTY
Valence
SciTegic.value.DoubleValue
2.414

@<SCITEGIC>MOL_PROPERTY
Coulomb
SciTegic.value.DoubleValue
44.831

@<SCITEGIC>MOL_PROPERTY
VdW
SciTegic.value.DoubleValue
0.178

@<SCITEGIC>MOL_PROPERTY
VdW6
SciTegic.value.DoubleValue
-3.743

@<SCITEGIC>MOL_PROPERTY
VdW12
SciTegic.value.DoubleValue
3.921

@<SCITEGIC>MOL_PROPERTY
Bond
SciTegic.value.DoubleValue
0.138

@<SCITEGIC>MOL_PROPERTY
Angle
SciTegic.value.DoubleValue
0.941

@<SCITEGIC>MOL_PROPERTY
Pdih
SciTegic.value.DoubleValue
1.335

@<SCITEGIC>MOL_PROPERTY
Idih
SciTegic.value.DoubleValue
0.000

@<SCITEGIC>MOL_PROPERTY
Tether
SciTegic.value.DoubleValue
0.000

@<TRIPOS>MOLECULE
guest-1_confgen4.mol2 : confsearch ligand conformer 784
          17          16           1
SMALL
USER_CHARGES
 
@<TRIPOS>ATOM
       1    N1      20.345741   19.408634   19.834542 N.4        1 MOL1        -0.5891
       2    H1      21.057670   19.776351   19.195194 H          1 MOL1         0.3726
       3    H2      19.488281   19.288590   19.286974 H          1 MOL1         0.3726
       4    H3      20.651723   18.475855   20.122884 H          1 MOL1         0.3726
       5    C1      20.130577   20.322861   21.025312 C.3        1 MOL1         0.0314
       6    H4      19.805764   21.289799   20.631531 H          1 MOL1         0.0999
       7    H5      21.089380   20.468546   21.530063 H          1 MOL1         0.0999
       8    C2      19.080858   19.812968   22.035120 C.3        1 MOL1        -0.1308
       9    H6      18.729708   20.675298   22.617295 H          1 MOL1         0.1025
      10    H7      18.200439   19.431427   21.501249 H          1 MOL1         0.1025
      11    C3      19.610352   18.749543   23.030844 C.3        1 MOL1        -0.1243
      12    H8      18.819098   18.537264   23.763541 H          1 MOL1         0.1025
      13    H9      20.451022   19.165739   23.603623 H          1 MOL1         0.1025
      14    C4      20.043083   17.418867   22.374396 C.3        1 MOL1        -0.2258
      15    H10     19.256876   17.024121   21.717734 H          1 MOL1         0.1036
      16    H11     20.244541   16.662641   23.144262 H          1 MOL1         0.1036
      17    H12     20.964097   17.538342   21.792039 H          1 MOL1         0.1036
@<TRIPOS>BOND
    1     1     2    1
    2     1     3    1
    3     1     4    1
    4     1     5    1
    5     5     6    1
    6     5     7    1
    7     5     8    1
    8     8     9    1
    9     8    10    1
   10     8    11    1
   11    11    12    1
   12    11    13    1
   13    11    14    1
   14    14    15    1
   15    14    16    1
   16    14    17    1
@<TRIPOS>SUBSTRUCTURE
       1 MOL1            1 RESIDUE      1      MOL     
@<SCITEGIC>MOL_PROPERTY
VConf Rank
SciTegic.value.IntegerValue
784

@<SCITEGIC>MOL_PROPERTY
Conf_Id
SciTegic.value.IntegerValue
44

@<SCITEGIC>MOL_PROPERTY
Delta U+W
SciTegic.value.DoubleValue
2.712

@<SCITEGIC>MOL_PROPERTY
U+W
SciTegic.value.DoubleValue
-13.153

@<SCITEGIC>MOL_PROPERTY
Grad RMS
SciTegic.value.DoubleValue
0.000000

@<SCITEGIC>MOL_PROPERTY
U
SciTegic.value.DoubleValue
47.423

@<SCITEGIC>MOL_PROPERTY
W
SciTegic.value.DoubleValue
-60.576

@<SCITEGIC>MOL_PROPERTY
W(PB)
SciTegic.value.DoubleValue
-62.262

@<SCITEGIC>MOL_PROPERTY
W(SA)
SciTegic.value.DoubleValue
1.687

@<SCITEGIC>MOL_PROPERTY
Valence
SciTegic.value.DoubleValue
2.414

@<SCITEGIC>MOL_PROPERTY
Coulomb
SciTegic.value.DoubleValue
44.831

@<SCITEGIC>MOL_PROPERTY
VdW
SciTegic.value.DoubleValue
0.178

@<SCITEGIC>MOL_PROPERTY
VdW6
SciTegic.value.DoubleValue
-3.743

@<SCITEGIC>MOL_PROPERTY
VdW12
SciTegic.value.DoubleValue
3.922

@<SCITEGIC>MOL_PROPERTY
Bond
SciTegic.value.DoubleValue
0.138

@<SCITEGIC>MOL_PROPERTY
Angle
SciTegic.value.DoubleValue
0.941

@<SCITEGIC>MOL_PROPERTY
Pdih
SciTegic.value.DoubleValue
1.335

@<SCITEGIC>MOL_PROPERTY
Idih
SciTegic.value.DoubleValue
0.000

@<SCITEGIC>MOL_PROPERTY
Tether
SciTegic.value.DoubleValue
0.000

@<TRIPOS>MOLECULE
guest-1_confgen4.mol2 : confsearch ligand conformer 785
          17          16           1
SMALL
USER_CHARGES
 
@<TRIPOS>ATOM
       1    N1      20.472585   20.945364   21.661532 N.4        1 MOL1        -0.5891
       2    H1      20.560957   20.575025   22.612051 H          1 MOL1         0.3726
       3    H2      19.662752   21.572665   21.654996 H          1 MOL1         0.3726
       4    H3      21.299748   21.525417   21.488307 H          1 MOL1         0.3726
       5    C1      20.337097   19.835832   20.636623 C.3        1 MOL1         0.0314
       6    H4      21.242604   19.224844   20.676049 H          1 MOL1         0.0999
       7    H5      20.285655   20.300190   19.648056 H          1 MOL1         0.0999
       8    C2      19.097079   18.942357   20.846332 C.3        1 MOL1        -0.1308
       9    H6      18.191404   19.557831   20.764521 H          1 MOL1         0.1025
      10    H7      19.046487   18.213681   20.026407 H          1 MOL1         0.1025
      11    C3      19.085545   18.188146   22.199325 C.3        1 MOL1        -0.1243
      12    H8      18.163828   17.593121   22.264808 H          1 MOL1         0.1025
      13    H9      19.043216   18.904790   23.030760 H          1 MOL1         0.1025
      14    C4      20.301879   17.251447   22.380771 C.3        1 MOL1        -0.2258
      15    H10     20.365386   16.523926   21.561169 H          1 MOL1         0.1036
      16    H11     20.218919   16.690330   23.320576 H          1 MOL1         0.1036
      17    H12     21.243501   17.813799   22.413266 H          1 MOL1         0.1036
@<TRIPOS>BOND
    1     1     2    1
    2     1     3    1
    3     1     4    1
    4     1     5    1
    5     5     6    1
    6     5     7    1
    7     5     8    1
    8     8     9    1
    9     8    10    1
   10     8    11    1
   11    11    12    1
   12    11    13    1
   13    11    14    1
   14    14    15    1
   15    14    16    1
   16    14    17    1
@<TRIPOS>SUBSTRUCTURE
       1 MOL1            1 RESIDUE      1      MOL     
@<SCITEGIC>MOL_PROPERTY
VConf Rank
SciTegic.value.IntegerValue
785

@<SCITEGIC>MOL_PROPERTY
Conf_Id
SciTegic.value.IntegerValue
1

@<SCITEGIC>MOL_PROPERTY
Delta U+W
SciTegic.value.DoubleValue
0.685

@<SCITEGIC>MOL_PROPERTY
U+W
SciTegic.value.DoubleValue
-15.179

@<SCITEGIC>MOL_PROPERTY
Grad RMS
SciTegic.value.DoubleValue
0.000000

@<SCITEGIC>MOL_PROPERTY
U
SciTegic.value.DoubleValue
45.697

@<SCITEGIC>MOL_PROPERTY
W
SciTegic.value.DoubleValue
-60.876

@<SCITEGIC>MOL_PROPERTY
W(PB)
SciTegic.value.DoubleValue
-62.586

@<SCITEGIC>MOL_PROPERTY
W(SA)
SciTegic.value.DoubleValue
1.710

@<SCITEGIC>MOL_PROPERTY
Valence
SciTegic.value.DoubleValue
1.263

@<SCITEGIC>MOL_PROPERTY
Coulomb
SciTegic.value.DoubleValue
44.179

@<SCITEGIC>MOL_PROPERTY
VdW
SciTegic.value.DoubleValue
0.255

@<SCITEGIC>MOL_PROPERTY
VdW6
SciTegic.value.DoubleValue
-3.552

@<SCITEGIC>MOL_PROPERTY
VdW12
SciTegic.value.DoubleValue
3.807

@<SCITEGIC>MOL_PROPERTY
Bond
SciTegic.value.DoubleValue
0.125

@<SCITEGIC>MOL_PROPERTY
Angle
SciTegic.value.DoubleValue
0.616

@<SCITEGIC>MOL_PROPERTY
Pdih
SciTegic.value.DoubleValue
0.521

@<SCITEGIC>MOL_PROPERTY
Idih
SciTegic.value.DoubleValue
0.000

@<SCITEGIC>MOL_PROPERTY
Tether
SciTegic.value.DoubleValue
0.000

@<TRIPOS>MOLECULE
guest-1_confgen4.mol2 : confsearch ligand conformer 786
          17          16           1
SMALL
USER_CHARGES
 
@<TRIPOS>ATOM
       1    N1      19.554079   17.593789   22.920257 N.4        1 MOL1        -0.5891
       2    H1      19.458239   17.970353   23.868092 H          1 MOL1         0.3726
       3    H2      20.555311   17.556785   22.709038 H          1 MOL1         0.3726
       4    H3      19.218425   16.625718   22.949273 H          1 MOL1         0.3726
       5    C1      18.795474   18.423493   21.902430 C.3        1 MOL1         0.0314
       6    H4      17.735264   18.387794   22.167415 H          1 MOL1         0.0999
       7    H5      18.914956   17.952236   20.923428 H          1 MOL1         0.0999
       8    C2      19.254867   19.894484   21.831277 C.3        1 MOL1        -0.1308
       9    H6      18.611429   20.429385   21.120170 H          1 MOL1         0.1025
      10    H7      19.092935   20.370245   22.807585 H          1 MOL1         0.1025
      11    C3      20.735411   20.072548   21.411943 C.3        1 MOL1        -0.1243
      12    H8      21.397551   19.621113   22.163229 H          1 MOL1         0.1025
      13    H9      20.974016   21.145345   21.403091 H          1 MOL1         0.1025
      14    C4      21.046078   19.477534   20.019376 C.3        1 MOL1        -0.2258
      15    H10     22.086343   19.683661   19.735954 H          1 MOL1         0.1036
      16    H11     20.396692   19.914572   19.249725 H          1 MOL1         0.1036
      17    H12     20.908917   18.388983   20.005457 H          1 MOL1         0.1036
@<TRIPOS>BOND
    1     1     2    1
    2     1     3    1
    3     1     4    1
    4     1     5    1
    5     5     6    1
    6     5     7    1
    7     5     8    1
    8     8     9    1
    9     8    10    1
   10     8    11    1
   11    11    12    1
   12    11    13    1
   13    11    14    1
   14    14    15    1
   15    14    16    1
   16    14    17    1
@<TRIPOS>SUBSTRUCTURE
       1 MOL1            1 RESIDUE      1      MOL     
@<SCITEGIC>MOL_PROPERTY
VConf Rank
SciTegic.value.IntegerValue
786

@<SCITEGIC>MOL_PROPERTY
Conf_Id
SciTegic.value.IntegerValue
43

@<SCITEGIC>MOL_PROPERTY
Delta U+W
SciTegic.value.DoubleValue
0.642

@<SCITEGIC>MOL_PROPERTY
U+W
SciTegic.value.DoubleValue
-15.222

@<SCITEGIC>MOL_PROPERTY
Grad RMS
SciTegic.value.DoubleValue
0.000000

@<SCITEGIC>MOL_PROPERTY
U
SciTegic.value.DoubleValue
45.697

@<SCITEGIC>MOL_PROPERTY
W
SciTegic.value.DoubleValue
-60.919

@<SCITEGIC>MOL_PROPERTY
W(PB)
SciTegic.value.DoubleValue
-62.631

@<SCITEGIC>MOL_PROPERTY
W(SA)
SciTegic.value.DoubleValue
1.712

@<SCITEGIC>MOL_PROPERTY
Valence
SciTegic.value.DoubleValue
1.262

@<SCITEGIC>MOL_PROPERTY
Coulomb
SciTegic.value.DoubleValue
44.179

@<SCITEGIC>MOL_PROPERTY
VdW
SciTegic.value.DoubleValue
0.255

@<SCITEGIC>MOL_PROPERTY
VdW6
SciTegic.value.DoubleValue
-3.552

@<SCITEGIC>MOL_PROPERTY
VdW12
SciTegic.value.DoubleValue
3.807

@<SCITEGIC>MOL_PROPERTY
Bond
SciTegic.value.DoubleValue
0.125

@<SCITEGIC>MOL_PROPERTY
Angle
SciTegic.value.DoubleValue
0.616

@<SCITEGIC>MOL_PROPERTY
Pdih
SciTegic.value.DoubleValue
0.521

@<SCITEGIC>MOL_PROPERTY
Idih
SciTegic.value.DoubleValue
0.000

@<SCITEGIC>MOL_PROPERTY
Tether
SciTegic.value.DoubleValue
0.000

@<TRIPOS>MOLECULE
guest-1_confgen4.mol2 : confsearch ligand conformer 787
          17          16           1
SMALL
USER_CHARGES
 
@<TRIPOS>ATOM
       1    N1      18.182822   20.773089   20.887398 N.4        1 MOL1        -0.5891
       2    H1      18.791778   21.362088   20.311249 H          1 MOL1         0.3726
       3    H2      18.079076   21.242366   21.792226 H          1 MOL1         0.3726
       4    H3      17.258924   20.778545   20.443223 H          1 MOL1         0.3726
       5    C1      18.728279   19.366786   21.036208 C.3        1 MOL1         0.0314
       6    H4      18.782774   18.918703   20.040328 H          1 MOL1         0.0999
       7    H5      18.016363   18.789944   21.632825 H          1 MOL1         0.0999
       8    C2      20.116374   19.321576   21.700595 C.3        1 MOL1        -0.1308
       9    H6      20.824942   19.914582   21.107075 H          1 MOL1         0.1025
      10    H7      20.061138   19.786126   22.694140 H          1 MOL1         0.1025
      11    C3      20.634683   17.872642   21.832763 C.3        1 MOL1        -0.1243
      12    H8      20.687040   17.405995   20.838869 H          1 MOL1         0.1025
      13    H9      19.924216   17.277713   22.424051 H          1 MOL1         0.1025
      14    C4      22.026831   17.819402   22.498379 C.3        1 MOL1        -0.2258
      15    H10     22.376925   16.782416   22.582891 H          1 MOL1         0.1036
      16    H11     21.998706   18.248160   23.508618 H          1 MOL1         0.1036
      17    H12     22.767534   18.377511   21.910944 H          1 MOL1         0.1036
@<TRIPOS>BOND
    1     1     2    1
    2     1     3    1
    3     1     4    1
    4     1     5    1
    5     5     6    1
    6     5     7    1
    7     5     8    1
    8     8     9    1
    9     8    10    1
   10     8    11    1
   11    11    12    1
   12    11    13    1
   13    11    14    1
   14    14    15    1
   15    14    16    1
   16    14    17    1
@<TRIPOS>SUBSTRUCTURE
       1 MOL1            1 RESIDUE      1      MOL     
@<SCITEGIC>MOL_PROPERTY
VConf Rank
SciTegic.value.IntegerValue
787

@<SCITEGIC>MOL_PROPERTY
Conf_Id
SciTegic.value.IntegerValue
7

@<SCITEGIC>MOL_PROPERTY
Delta U+W
SciTegic.value.DoubleValue
0.000

@<SCITEGIC>MOL_PROPERTY
U+W
SciTegic.value.DoubleValue
-15.865

@<SCITEGIC>MOL_PROPERTY
Grad RMS
SciTegic.value.DoubleValue
0.000000

@<SCITEGIC>MOL_PROPERTY
U
SciTegic.value.DoubleValue
44.664

@<SCITEGIC>MOL_PROPERTY
W
SciTegic.value.DoubleValue
-60.529

@<SCITEGIC>MOL_PROPERTY
W(PB)
SciTegic.value.DoubleValue
-62.309

@<SCITEGIC>MOL_PROPERTY
W(SA)
SciTegic.value.DoubleValue
1.780

@<SCITEGIC>MOL_PROPERTY
Valence
SciTegic.value.DoubleValue
0.872

@<SCITEGIC>MOL_PROPERTY
Coulomb
SciTegic.value.DoubleValue
43.648

@<SCITEGIC>MOL_PROPERTY
VdW
SciTegic.value.DoubleValue
0.144

@<SCITEGIC>MOL_PROPERTY
VdW6
SciTegic.value.DoubleValue
-2.370

@<SCITEGIC>MOL_PROPERTY
VdW12
SciTegic.value.DoubleValue
2.515

@<SCITEGIC>MOL_PROPERTY
Bond
SciTegic.value.DoubleValue
0.080

@<SCITEGIC>MOL_PROPERTY
Angle
SciTegic.value.DoubleValue
0.376

@<SCITEGIC>MOL_PROPERTY
Pdih
SciTegic.value.DoubleValue
0.416

@<SCITEGIC>MOL_PROPERTY
Idih
SciTegic.value.DoubleValue
0.000

@<SCITEGIC>MOL_PROPERTY
Tether
SciTegic.value.DoubleValue
0.000

@<TRIPOS>MOLECULE
guest-1_confgen4.mol2 : confsearch ligand conformer 788
          17          16           1
SMALL
USER_CHARGES
 
@<TRIPOS>ATOM
       1    N1      18.672903   17.873865   19.959821 N.4        1 MOL1        -0.5891
       2    H1      17.949538   17.324507   20.433739 H          1 MOL1         0.3726
       3    H2      19.410784   17.220877   19.679132 H          1 MOL1         0.3726
       4    H3      18.252967   18.235145   19.097282 H          1 MOL1         0.3726
       5    C1      19.205414   18.988900   20.837594 C.3        1 MOL1         0.0314
       6    H4      18.374888   19.660116   21.072338 H          1 MOL1         0.0999
       7    H5      19.945058   19.547953   20.258607 H          1 MOL1         0.0999
       8    C2      19.844531   18.480051   22.143947 C.3        1 MOL1        -0.1308
       9    H6      19.105653   17.886506   22.698601 H          1 MOL1         0.1025
      10    H7      20.677622   17.804585   21.908163 H          1 MOL1         0.1025
      11    C3      20.348468   19.628961   23.048413 C.3        1 MOL1        -0.1243
      12    H8      20.716955   19.204356   23.992822 H          1 MOL1         0.1025
      13    H9      19.509096   20.287583   23.312712 H          1 MOL1         0.1025
      14    C4      21.476067   20.461355   22.396035 C.3        1 MOL1        -0.2258
      15    H10     22.325765   19.824979   22.116459 H          1 MOL1         0.1036
      16    H11     21.844631   21.224090   23.094177 H          1 MOL1         0.1036
      17    H12     21.125041   20.979942   21.494958 H          1 MOL1         0.1036
@<TRIPOS>BOND
    1     1     2    1
    2     1     3    1
    3     1     4    1
    4     1     5    1
    5     5     6    1
    6     5     7    1
    7     5     8    1
    8     8     9    1
    9     8    10    1
   10     8    11    1
   11    11    12    1
   12    11    13    1
   13    11    14    1
   14    14    15    1
   15    14    16    1
   16    14    17    1
@<TRIPOS>SUBSTRUCTURE
       1 MOL1            1 RESIDUE      1      MOL     
@<SCITEGIC>MOL_PROPERTY
VConf Rank
SciTegic.value.IntegerValue
788

@<SCITEGIC>MOL_PROPERTY
Conf_Id
SciTegic.value.IntegerValue
36

@<SCITEGIC>MOL_PROPERTY
Delta U+W
SciTegic.value.DoubleValue
0.275

@<SCITEGIC>MOL_PROPERTY
U+W
SciTegic.value.DoubleValue
-15.590

@<SCITEGIC>MOL_PROPERTY
Grad RMS
SciTegic.value.DoubleValue
0.000000

@<SCITEGIC>MOL_PROPERTY
U
SciTegic.value.DoubleValue
45.174

@<SCITEGIC>MOL_PROPERTY
W
SciTegic.value.DoubleValue
-60.765

@<SCITEGIC>MOL_PROPERTY
W(PB)
SciTegic.value.DoubleValue
-62.518

@<SCITEGIC>MOL_PROPERTY
W(SA)
SciTegic.value.DoubleValue
1.754

@<SCITEGIC>MOL_PROPERTY
Valence
SciTegic.value.DoubleValue
1.161

@<SCITEGIC>MOL_PROPERTY
Coulomb
SciTegic.value.DoubleValue
43.789

@<SCITEGIC>MOL_PROPERTY
VdW
SciTegic.value.DoubleValue
0.224

@<SCITEGIC>MOL_PROPERTY
VdW6
SciTegic.value.DoubleValue
-2.897

@<SCITEGIC>MOL_PROPERTY
VdW12
SciTegic.value.DoubleValue
3.121

@<SCITEGIC>MOL_PROPERTY
Bond
SciTegic.value.DoubleValue
0.100

@<SCITEGIC>MOL_PROPERTY
Angle
SciTegic.value.DoubleValue
0.500

@<SCITEGIC>MOL_PROPERTY
Pdih
SciTegic.value.DoubleValue
0.561

@<SCITEGIC>MOL_PROPERTY
Idih
SciTegic.value.DoubleValue
0.000

@<SCITEGIC>MOL_PROPERTY
Tether
SciTegic.value.DoubleValue
0.000

@<TRIPOS>MOLECULE
guest-1_confgen4.mol2 : confsearch ligand conformer 789
          17          16           1
SMALL
USER_CHARGES
 
@<TRIPOS>ATOM
       1    N1      20.586136   19.706002   23.188640 N.4        1 MOL1        -0.5891
       2    H1      21.188302   19.948853   22.397903 H          1 MOL1         0.3726
       3    H2      21.038553   18.932785   23.685564 H          1 MOL1         0.3726
       4    H3      20.585255   20.508892   23.825970 H          1 MOL1         0.3726
       5    C1      19.184662   19.342483   22.737247 C.3        1 MOL1         0.0314
       6    H4      18.728088   20.222565   22.276490 H          1 MOL1         0.0999
       7    H5      18.612795   19.096808   23.636219 H          1 MOL1         0.0999
       8    C2      19.122249   18.149644   21.760081 C.3        1 MOL1        -0.1308
       9    H6      19.786743   17.346396   22.105000 H          1 MOL1         0.1025
      10    H7      18.105350   17.737105   21.799768 H          1 MOL1         0.1025
      11    C3      19.432953   18.510271   20.284915 C.3        1 MOL1        -0.1243
      12    H8      18.720825   19.269532   19.932186 H          1 MOL1         0.1025
      13    H9      19.257594   17.618776   19.666468 H          1 MOL1         0.1025
      14    C4      20.876597   19.004150   20.038225 C.3        1 MOL1        -0.2258
      15    H10     21.039310   20.000765   20.464789 H          1 MOL1         0.1036
      16    H11     21.074415   19.078596   18.960968 H          1 MOL1         0.1036
      17    H12     21.613372   18.311094   20.464828 H          1 MOL1         0.1036
@<TRIPOS>BOND
    1     1     2    1
    2     1     3    1
    3     1     4    1
    4     1     5    1
    5     5     6    1
    6     5     7    1
    7     5     8    1
    8     8     9    1
    9     8    10    1
   10     8    11    1
   11    11    12    1
   12    11    13    1
   13    11    14    1
   14    14    15    1
   15    14    16    1
   16    14    17    1
@<TRIPOS>SUBSTRUCTURE
       1 MOL1            1 RESIDUE      1      MOL     
@<SCITEGIC>MOL_PROPERTY
VConf Rank
SciTegic.value.IntegerValue
789

@<SCITEGIC>MOL_PROPERTY
Conf_Id
SciTegic.value.IntegerValue
19

@<SCITEGIC>MOL_PROPERTY
Delta U+W
SciTegic.value.DoubleValue
2.662

@<SCITEGIC>MOL_PROPERTY
U+W
SciTegic.value.DoubleValue
-13.203

@<SCITEGIC>MOL_PROPERTY
Grad RMS
SciTegic.value.DoubleValue
0.000000

@<SCITEGIC>MOL_PROPERTY
U
SciTegic.value.DoubleValue
47.423

@<SCITEGIC>MOL_PROPERTY
W
SciTegic.value.DoubleValue
-60.626

@<SCITEGIC>MOL_PROPERTY
W(PB)
SciTegic.value.DoubleValue
-62.328

@<SCITEGIC>MOL_PROPERTY
W(SA)
SciTegic.value.DoubleValue
1.702

@<SCITEGIC>MOL_PROPERTY
Valence
SciTegic.value.DoubleValue
2.414

@<SCITEGIC>MOL_PROPERTY
Coulomb
SciTegic.value.DoubleValue
44.831

@<SCITEGIC>MOL_PROPERTY
VdW
SciTegic.value.DoubleValue
0.178

@<SCITEGIC>MOL_PROPERTY
VdW6
SciTegic.value.DoubleValue
-3.743

@<SCITEGIC>MOL_PROPERTY
VdW12
SciTegic.value.DoubleValue
3.921

@<SCITEGIC>MOL_PROPERTY
Bond
SciTegic.value.DoubleValue
0.138

@<SCITEGIC>MOL_PROPERTY
Angle
SciTegic.value.DoubleValue
0.941

@<SCITEGIC>MOL_PROPERTY
Pdih
SciTegic.value.DoubleValue
1.335

@<SCITEGIC>MOL_PROPERTY
Idih
SciTegic.value.DoubleValue
0.000

@<SCITEGIC>MOL_PROPERTY
Tether
SciTegic.value.DoubleValue
0.000

@<TRIPOS>MOLECULE
guest-1_confgen4.mol2 : confsearch ligand conformer 790
          17          16           1
SMALL
USER_CHARGES
 
@<TRIPOS>ATOM
       1    N1      21.356580   18.005976   22.002983 N.4        1 MOL1        -0.5891
       2    H1      22.267869   17.656513   21.689530 H          1 MOL1         0.3726
       3    H2      21.095959   17.457604   22.828116 H          1 MOL1         0.3726
       4    H3      21.493997   18.970951   22.314084 H          1 MOL1         0.3726
       5    C1      20.309658   17.911356   20.909804 C.3        1 MOL1         0.0314
       6    H4      20.224346   16.855390   20.639259 H          1 MOL1         0.0999
       7    H5      20.671007   18.456392   20.033639 H          1 MOL1         0.0999
       8    C2      18.918071   18.440143   21.316595 C.3        1 MOL1        -0.1308
       9    H6      18.178686   17.992950   20.638972 H          1 MOL1         0.1025
      10    H7      18.659746   18.082832   22.322243 H          1 MOL1         0.1025
      11    C3      18.767317   19.980783   21.236567 C.3        1 MOL1        -0.1243
      12    H8      17.718532   20.236985   21.442481 H          1 MOL1         0.1025
      13    H9      18.966646   20.318794   20.209903 H          1 MOL1         0.1025
      14    C4      19.667221   20.762886   22.220114 C.3        1 MOL1        -0.2258
      15    H10     19.561477   20.383632   23.244876 H          1 MOL1         0.1036
      16    H11     19.389261   21.824881   22.227883 H          1 MOL1         0.1036
      17    H12     20.722838   20.708777   21.929555 H          1 MOL1         0.1036
@<TRIPOS>BOND
    1     1     2    1
    2     1     3    1
    3     1     4    1
    4     1     5    1
    5     5     6    1
    6     5     7    1
    7     5     8    1
    8     8     9    1
    9     8    10    1
   10     8    11    1
   11    11    12    1
   12    11    13    1
   13    11    14    1
   14    14    15    1
   15    14    16    1
   16    14    17    1
@<TRIPOS>SUBSTRUCTURE
       1 MOL1            1 RESIDUE      1      MOL     
@<SCITEGIC>MOL_PROPERTY
VConf Rank
SciTegic.value.IntegerValue
790

@<SCITEGIC>MOL_PROPERTY
Conf_Id
SciTegic.value.IntegerValue
44

@<SCITEGIC>MOL_PROPERTY
Delta U+W
SciTegic.value.DoubleValue
2.712

@<SCITEGIC>MOL_PROPERTY
U+W
SciTegic.value.DoubleValue
-13.153

@<SCITEGIC>MOL_PROPERTY
Grad RMS
SciTegic.value.DoubleValue
0.000000

@<SCITEGIC>MOL_PROPERTY
U
SciTegic.value.DoubleValue
47.423

@<SCITEGIC>MOL_PROPERTY
W
SciTegic.value.DoubleValue
-60.576

@<SCITEGIC>MOL_PROPERTY
W(PB)
SciTegic.value.DoubleValue
-62.262

@<SCITEGIC>MOL_PROPERTY
W(SA)
SciTegic.value.DoubleValue
1.687

@<SCITEGIC>MOL_PROPERTY
Valence
SciTegic.value.DoubleValue
2.414

@<SCITEGIC>MOL_PROPERTY
Coulomb
SciTegic.value.DoubleValue
44.831

@<SCITEGIC>MOL_PROPERTY
VdW
SciTegic.value.DoubleValue
0.178

@<SCITEGIC>MOL_PROPERTY
VdW6
SciTegic.value.DoubleValue
-3.743

@<SCITEGIC>MOL_PROPERTY
VdW12
SciTegic.value.DoubleValue
3.922

@<SCITEGIC>MOL_PROPERTY
Bond
SciTegic.value.DoubleValue
0.138

@<SCITEGIC>MOL_PROPERTY
Angle
SciTegic.value.DoubleValue
0.941

@<SCITEGIC>MOL_PROPERTY
Pdih
SciTegic.value.DoubleValue
1.335

@<SCITEGIC>MOL_PROPERTY
Idih
SciTegic.value.DoubleValue
0.000

@<SCITEGIC>MOL_PROPERTY
Tether
SciTegic.value.DoubleValue
0.000

@<TRIPOS>MOLECULE
guest-1_confgen4.mol2 : confsearch ligand conformer 791
          17          16           1
SMALL
USER_CHARGES
 
@<TRIPOS>ATOM
       1    N1      18.658079   18.624624   23.077334 N.4        1 MOL1        -0.5891
       2    H1      19.556789   18.198060   23.319840 H          1 MOL1         0.3726
       3    H2      18.019949   17.863903   22.825397 H          1 MOL1         0.3726
       4    H3      18.288975   19.051636   23.932957 H          1 MOL1         0.3726
       5    C1      18.800853   19.637539   21.957746 C.3        1 MOL1         0.0314
       6    H4      19.467699   20.432286   22.301981 H          1 MOL1         0.0999
       7    H5      17.815783   20.076989   21.778697 H          1 MOL1         0.0999
       8    C2      19.340101   19.039478   20.641898 C.3        1 MOL1        -0.1308
       9    H6      18.642893   18.270809   20.283010 H          1 MOL1         0.1025
      10    H7      19.348327   19.826234   19.875901 H          1 MOL1         0.1025
      11    C3      20.759386   18.430516   20.761696 C.3        1 MOL1        -0.1243
      12    H8      21.051336   18.018977   19.785322 H          1 MOL1         0.1025
      13    H9      20.748117   17.580638   21.457565 H          1 MOL1         0.1025
      14    C4      21.823076   19.457971   21.211914 C.3        1 MOL1        -0.2258
      15    H10     21.854357   20.317943   20.530344 H          1 MOL1         0.1036
      16    H11     22.820999   19.000742   21.219724 H          1 MOL1         0.1036
      17    H12     21.621924   19.830419   22.224223 H          1 MOL1         0.1036
@<TRIPOS>BOND
    1     1     2    1
    2     1     3    1
    3     1     4    1
    4     1     5    1
    5     5     6    1
    6     5     7    1
    7     5     8    1
    8     8     9    1
    9     8    10    1
   10     8    11    1
   11    11    12    1
   12    11    13    1
   13    11    14    1
   14    14    15    1
   15    14    16    1
   16    14    17    1
@<TRIPOS>SUBSTRUCTURE
       1 MOL1            1 RESIDUE      1      MOL     
@<SCITEGIC>MOL_PROPERTY
VConf Rank
SciTegic.value.IntegerValue
791

@<SCITEGIC>MOL_PROPERTY
Conf_Id
SciTegic.value.IntegerValue
1

@<SCITEGIC>MOL_PROPERTY
Delta U+W
SciTegic.value.DoubleValue
0.685

@<SCITEGIC>MOL_PROPERTY
U+W
SciTegic.value.DoubleValue
-15.179

@<SCITEGIC>MOL_PROPERTY
Grad RMS
SciTegic.value.DoubleValue
0.000000

@<SCITEGIC>MOL_PROPERTY
U
SciTegic.value.DoubleValue
45.697

@<SCITEGIC>MOL_PROPERTY
W
SciTegic.value.DoubleValue
-60.876

@<SCITEGIC>MOL_PROPERTY
W(PB)
SciTegic.value.DoubleValue
-62.586

@<SCITEGIC>MOL_PROPERTY
W(SA)
SciTegic.value.DoubleValue
1.710

@<SCITEGIC>MOL_PROPERTY
Valence
SciTegic.value.DoubleValue
1.263

@<SCITEGIC>MOL_PROPERTY
Coulomb
SciTegic.value.DoubleValue
44.179

@<SCITEGIC>MOL_PROPERTY
VdW
SciTegic.value.DoubleValue
0.255

@<SCITEGIC>MOL_PROPERTY
VdW6
SciTegic.value.DoubleValue
-3.552

@<SCITEGIC>MOL_PROPERTY
VdW12
SciTegic.value.DoubleValue
3.807

@<SCITEGIC>MOL_PROPERTY
Bond
SciTegic.value.DoubleValue
0.125

@<SCITEGIC>MOL_PROPERTY
Angle
SciTegic.value.DoubleValue
0.616

@<SCITEGIC>MOL_PROPERTY
Pdih
SciTegic.value.DoubleValue
0.521

@<SCITEGIC>MOL_PROPERTY
Idih
SciTegic.value.DoubleValue
0.000

@<SCITEGIC>MOL_PROPERTY
Tether
SciTegic.value.DoubleValue
0.000

@<TRIPOS>MOLECULE
guest-1_confgen4.mol2 : confsearch ligand conformer 792
          17          16           1
SMALL
USER_CHARGES
 
@<TRIPOS>ATOM
       1    N1      21.385808   18.254547   22.700275 N.4        1 MOL1        -0.5891
       2    H1      21.225357   18.408933   23.700174 H          1 MOL1         0.3726
       3    H2      21.737020   19.133952   22.310728 H          1 MOL1         0.3726
       4    H3      22.143973   17.569082   22.622873 H          1 MOL1         0.3726
       5    C1      20.129147   17.788093   21.990993 C.3        1 MOL1         0.0314
       6    H4      19.834221   16.831442   22.430739 H          1 MOL1         0.0999
       7    H5      20.376684   17.614904   20.940500 H          1 MOL1         0.0999
       8    C2      18.952493   18.780726   22.091411 C.3        1 MOL1        -0.1308
       9    H6      18.073531   18.333538   21.608450 H          1 MOL1         0.1025
      10    H7      18.684779   18.916638   23.147633 H          1 MOL1         0.1025
      11    C3      19.237412   20.162335   21.451460 C.3        1 MOL1        -0.1243
      12    H8      20.056931   20.663480   21.984279 H          1 MOL1         0.1025
      13    H9      18.353807   20.802401   21.583599 H          1 MOL1         0.1025
      14    C4      19.572888   20.074246   19.944976 C.3        1 MOL1        -0.2258
      15    H10     19.702460   21.078042   19.520035 H          1 MOL1         0.1036
      16    H11     18.766869   19.577268   19.389626 H          1 MOL1         0.1036
      17    H12     20.502607   19.518413   19.769989 H          1 MOL1         0.1036
@<TRIPOS>BOND
    1     1     2    1
    2     1     3    1
    3     1     4    1
    4     1     5    1
    5     5     6    1
    6     5     7    1
    7     5     8    1
    8     8     9    1
    9     8    10    1
   10     8    11    1
   11    11    12    1
   12    11    13    1
   13    11    14    1
   14    14    15    1
   15    14    16    1
   16    14    17    1
@<TRIPOS>SUBSTRUCTURE
       1 MOL1            1 RESIDUE      1      MOL     
@<SCITEGIC>MOL_PROPERTY
VConf Rank
SciTegic.value.IntegerValue
792

@<SCITEGIC>MOL_PROPERTY
Conf_Id
SciTegic.value.IntegerValue
43

@<SCITEGIC>MOL_PROPERTY
Delta U+W
SciTegic.value.DoubleValue
0.642

@<SCITEGIC>MOL_PROPERTY
U+W
SciTegic.value.DoubleValue
-15.222

@<SCITEGIC>MOL_PROPERTY
Grad RMS
SciTegic.value.DoubleValue
0.000000

@<SCITEGIC>MOL_PROPERTY
U
SciTegic.value.DoubleValue
45.697

@<SCITEGIC>MOL_PROPERTY
W
SciTegic.value.DoubleValue
-60.919

@<SCITEGIC>MOL_PROPERTY
W(PB)
SciTegic.value.DoubleValue
-62.631

@<SCITEGIC>MOL_PROPERTY
W(SA)
SciTegic.value.DoubleValue
1.712

@<SCITEGIC>MOL_PROPERTY
Valence
SciTegic.value.DoubleValue
1.262

@<SCITEGIC>MOL_PROPERTY
Coulomb
SciTegic.value.DoubleValue
44.179

@<SCITEGIC>MOL_PROPERTY
VdW
SciTegic.value.DoubleValue
0.255

@<SCITEGIC>MOL_PROPERTY
VdW6
SciTegic.value.DoubleValue
-3.552

@<SCITEGIC>MOL_PROPERTY
VdW12
SciTegic.value.DoubleValue
3.807

@<SCITEGIC>MOL_PROPERTY
Bond
SciTegic.value.DoubleValue
0.125

@<SCITEGIC>MOL_PROPERTY
Angle
SciTegic.value.DoubleValue
0.616

@<SCITEGIC>MOL_PROPERTY
Pdih
SciTegic.value.DoubleValue
0.521

@<SCITEGIC>MOL_PROPERTY
Idih
SciTegic.value.DoubleValue
0.000

@<SCITEGIC>MOL_PROPERTY
Tether
SciTegic.value.DoubleValue
0.000

@<TRIPOS>MOLECULE
guest-1_confgen4.mol2 : confsearch ligand conformer 793
          17          16           1
SMALL
USER_CHARGES
 
@<TRIPOS>ATOM
       1    N1      22.492403   19.173578   21.981708 N.4        1 MOL1        -0.5891
       2    H1      22.560859   18.400676   22.650761 H          1 MOL1         0.3726
       3    H2      22.506986   20.042799   22.523871 H          1 MOL1         0.3726
       4    H3      23.351688   19.158584   21.422858 H          1 MOL1         0.3726
       5    C1      21.254088   19.065929   21.114331 C.3        1 MOL1         0.0314
       6    H4      21.320766   18.134972   20.544774 H          1 MOL1         0.0999
       7    H5      21.262856   19.900766   20.408289 H          1 MOL1         0.0999
       8    C2      19.943774   19.085417   21.922390 C.3        1 MOL1        -0.1308
       9    H6      19.945321   18.254954   22.640945 H          1 MOL1         0.1025
      10    H7      19.887539   20.014727   22.504808 H          1 MOL1         0.1025
      11    C3      18.708460   18.973656   21.002047 C.3        1 MOL1        -0.1243
      12    H8      18.765843   18.045218   20.416354 H          1 MOL1         0.1025
      13    H9      18.708085   19.802873   20.280435 H          1 MOL1         0.1025
      14    C4      17.390231   18.992480   21.805709 C.3        1 MOL1        -0.2258
      15    H10     16.525477   18.912106   21.134301 H          1 MOL1         0.1036
      16    H11     17.287891   19.925206   22.375582 H          1 MOL1         0.1036
      17    H12     17.346140   18.153704   22.512618 H          1 MOL1         0.1036
@<TRIPOS>BOND
    1     1     2    1
    2     1     3    1
    3     1     4    1
    4     1     5    1
    5     5     6    1
    6     5     7    1
    7     5     8    1
    8     8     9    1
    9     8    10    1
   10     8    11    1
   11    11    12    1
   12    11    13    1
   13    11    14    1
   14    14    15    1
   15    14    16    1
   16    14    17    1
@<TRIPOS>SUBSTRUCTURE
       1 MOL1            1 RESIDUE      1      MOL     
@<SCITEGIC>MOL_PROPERTY
VConf Rank
SciTegic.value.IntegerValue
793

@<SCITEGIC>MOL_PROPERTY
Conf_Id
SciTegic.value.IntegerValue
7

@<SCITEGIC>MOL_PROPERTY
Delta U+W
SciTegic.value.DoubleValue
0.000

@<SCITEGIC>MOL_PROPERTY
U+W
SciTegic.value.DoubleValue
-15.865

@<SCITEGIC>MOL_PROPERTY
Grad RMS
SciTegic.value.DoubleValue
0.000000

@<SCITEGIC>MOL_PROPERTY
U
SciTegic.value.DoubleValue
44.664

@<SCITEGIC>MOL_PROPERTY
W
SciTegic.value.DoubleValue
-60.529

@<SCITEGIC>MOL_PROPERTY
W(PB)
SciTegic.value.DoubleValue
-62.309

@<SCITEGIC>MOL_PROPERTY
W(SA)
SciTegic.value.DoubleValue
1.780

@<SCITEGIC>MOL_PROPERTY
Valence
SciTegic.value.DoubleValue
0.872

@<SCITEGIC>MOL_PROPERTY
Coulomb
SciTegic.value.DoubleValue
43.648

@<SCITEGIC>MOL_PROPERTY
VdW
SciTegic.value.DoubleValue
0.144

@<SCITEGIC>MOL_PROPERTY
VdW6
SciTegic.value.DoubleValue
-2.370

@<SCITEGIC>MOL_PROPERTY
VdW12
SciTegic.value.DoubleValue
2.515

@<SCITEGIC>MOL_PROPERTY
Bond
SciTegic.value.DoubleValue
0.080

@<SCITEGIC>MOL_PROPERTY
Angle
SciTegic.value.DoubleValue
0.376

@<SCITEGIC>MOL_PROPERTY
Pdih
SciTegic.value.DoubleValue
0.416

@<SCITEGIC>MOL_PROPERTY
Idih
SciTegic.value.DoubleValue
0.000

@<SCITEGIC>MOL_PROPERTY
Tether
SciTegic.value.DoubleValue
0.000

@<TRIPOS>MOLECULE
guest-1_confgen4.mol2 : confsearch ligand conformer 794
          17          16           1
SMALL
USER_CHARGES
 
@<TRIPOS>ATOM
       1    N1      20.961181   18.472018   23.711179 N.4        1 MOL1        -0.5891
       2    H1      20.247465   18.059979   24.319852 H          1 MOL1         0.3726
       3    H2      21.147356   19.416224   24.062549 H          1 MOL1         0.3726
       4    H3      21.819327   17.929063   23.851280 H          1 MOL1         0.3726
       5    C1      20.531192   18.481738   22.257779 C.3        1 MOL1         0.0314
       6    H4      20.380050   17.445608   21.943138 H          1 MOL1         0.0999
       7    H5      21.349506   18.903270   21.668278 H          1 MOL1         0.0999
       8    C2      19.243008   19.290386   22.011550 C.3        1 MOL1        -0.1308
       9    H6      18.437875   18.884142   22.638131 H          1 MOL1         0.1025
      10    H7      19.394287   20.330650   22.329127 H          1 MOL1         0.1025
      11    C3      18.793319   19.260004   20.532070 C.3        1 MOL1        -0.1243
      12    H8      17.831850   19.784558   20.440401 H          1 MOL1         0.1025
      13    H9      18.609277   18.221596   20.222200 H          1 MOL1         0.1025
      14    C4      19.817252   19.913455   19.575764 C.3        1 MOL1        -0.2258
      15    H10     20.023689   20.951466   19.867381 H          1 MOL1         0.1036
      16    H11     19.431325   19.924948   18.548176 H          1 MOL1         0.1036
      17    H12     20.767422   19.364665   19.565943 H          1 MOL1         0.1036
@<TRIPOS>BOND
    1     1     2    1
    2     1     3    1
    3     1     4    1
    4     1     5    1
    5     5     6    1
    6     5     7    1
    7     5     8    1
    8     8     9    1
    9     8    10    1
   10     8    11    1
   11    11    12    1
   12    11    13    1
   13    11    14    1
   14    14    15    1
   15    14    16    1
   16    14    17    1
@<TRIPOS>SUBSTRUCTURE
       1 MOL1            1 RESIDUE      1      MOL     
@<SCITEGIC>MOL_PROPERTY
VConf Rank
SciTegic.value.IntegerValue
794

@<SCITEGIC>MOL_PROPERTY
Conf_Id
SciTegic.value.IntegerValue
36

@<SCITEGIC>MOL_PROPERTY
Delta U+W
SciTegic.value.DoubleValue
0.275

@<SCITEGIC>MOL_PROPERTY
U+W
SciTegic.value.DoubleValue
-15.590

@<SCITEGIC>MOL_PROPERTY
Grad RMS
SciTegic.value.DoubleValue
0.000000

@<SCITEGIC>MOL_PROPERTY
U
SciTegic.value.DoubleValue
45.174

@<SCITEGIC>MOL_PROPERTY
W
SciTegic.value.DoubleValue
-60.765

@<SCITEGIC>MOL_PROPERTY
W(PB)
SciTegic.value.DoubleValue
-62.518

@<SCITEGIC>MOL_PROPERTY
W(SA)
SciTegic.value.DoubleValue
1.754

@<SCITEGIC>MOL_PROPERTY
Valence
SciTegic.value.DoubleValue
1.161

@<SCITEGIC>MOL_PROPERTY
Coulomb
SciTegic.value.DoubleValue
43.789

@<SCITEGIC>MOL_PROPERTY
VdW
SciTegic.value.DoubleValue
0.224

@<SCITEGIC>MOL_PROPERTY
VdW6
SciTegic.value.DoubleValue
-2.897

@<SCITEGIC>MOL_PROPERTY
VdW12
SciTegic.value.DoubleValue
3.121

@<SCITEGIC>MOL_PROPERTY
Bond
SciTegic.value.DoubleValue
0.100

@<SCITEGIC>MOL_PROPERTY
Angle
SciTegic.value.DoubleValue
0.500

@<SCITEGIC>MOL_PROPERTY
Pdih
SciTegic.value.DoubleValue
0.561

@<SCITEGIC>MOL_PROPERTY
Idih
SciTegic.value.DoubleValue
0.000

@<SCITEGIC>MOL_PROPERTY
Tether
SciTegic.value.DoubleValue
0.000

@<TRIPOS>MOLECULE
guest-1_confgen4.mol2 : confsearch ligand conformer 795
          17          16           1
SMALL
USER_CHARGES
 
@<TRIPOS>ATOM
       1    N1      18.864412   19.528398   23.018815 N.4        1 MOL1        -0.5891
       2    H1      19.001591   18.514488   23.022665 H          1 MOL1         0.3726
       3    H2      17.937561   19.705536   22.620005 H          1 MOL1         0.3726
       4    H3      18.830175   19.832742   23.997092 H          1 MOL1         0.3726
       5    C1      19.956625   20.240606   22.244310 C.3        1 MOL1         0.0314
       6    H4      20.909938   20.072542   22.752495 H          1 MOL1         0.0999
       7    H5      19.734342   21.310276   22.288302 H          1 MOL1         0.0999
       8    C2      20.069695   19.810986   20.766387 C.3        1 MOL1        -0.1308
       9    H6      19.069772   19.740742   20.318115 H          1 MOL1         0.1025
      10    H7      20.587539   20.612690   20.223290 H          1 MOL1         0.1025
      11    C3      20.856622   18.495216   20.537916 C.3        1 MOL1        -0.1243
      12    H8      21.876133   18.600650   20.934781 H          1 MOL1         0.1025
      13    H9      20.966530   18.341332   19.455220 H          1 MOL1         0.1025
      14    C4      20.193504   17.239745   21.148611 C.3        1 MOL1        -0.2258
      15    H10     20.247379   17.248519   22.243461 H          1 MOL1         0.1036
      16    H11     20.709883   16.332859   20.807925 H          1 MOL1         0.1036
      17    H12     19.141497   17.157390   20.845872 H          1 MOL1         0.1036
@<TRIPOS>BOND
    1     1     2    1
    2     1     3    1
    3     1     4    1
    4     1     5    1
    5     5     6    1
    6     5     7    1
    7     5     8    1
    8     8     9    1
    9     8    10    1
   10     8    11    1
   11    11    12    1
   12    11    13    1
   13    11    14    1
   14    14    15    1
   15    14    16    1
   16    14    17    1
@<TRIPOS>SUBSTRUCTURE
       1 MOL1            1 RESIDUE      1      MOL     
@<SCITEGIC>MOL_PROPERTY
VConf Rank
SciTegic.value.IntegerValue
795

@<SCITEGIC>MOL_PROPERTY
Conf_Id
SciTegic.value.IntegerValue
19

@<SCITEGIC>MOL_PROPERTY
Delta U+W
SciTegic.value.DoubleValue
2.662

@<SCITEGIC>MOL_PROPERTY
U+W
SciTegic.value.DoubleValue
-13.203

@<SCITEGIC>MOL_PROPERTY
Grad RMS
SciTegic.value.DoubleValue
0.000000

@<SCITEGIC>MOL_PROPERTY
U
SciTegic.value.DoubleValue
47.423

@<SCITEGIC>MOL_PROPERTY
W
SciTegic.value.DoubleValue
-60.626

@<SCITEGIC>MOL_PROPERTY
W(PB)
SciTegic.value.DoubleValue
-62.328

@<SCITEGIC>MOL_PROPERTY
W(SA)
SciTegic.value.DoubleValue
1.702

@<SCITEGIC>MOL_PROPERTY
Valence
SciTegic.value.DoubleValue
2.414

@<SCITEGIC>MOL_PROPERTY
Coulomb
SciTegic.value.DoubleValue
44.831

@<SCITEGIC>MOL_PROPERTY
VdW
SciTegic.value.DoubleValue
0.178

@<SCITEGIC>MOL_PROPERTY
VdW6
SciTegic.value.DoubleValue
-3.743

@<SCITEGIC>MOL_PROPERTY
VdW12
SciTegic.value.DoubleValue
3.921

@<SCITEGIC>MOL_PROPERTY
Bond
SciTegic.value.DoubleValue
0.138

@<SCITEGIC>MOL_PROPERTY
Angle
SciTegic.value.DoubleValue
0.941

@<SCITEGIC>MOL_PROPERTY
Pdih
SciTegic.value.DoubleValue
1.335

@<SCITEGIC>MOL_PROPERTY
Idih
SciTegic.value.DoubleValue
0.000

@<SCITEGIC>MOL_PROPERTY
Tether
SciTegic.value.DoubleValue
0.000

@<TRIPOS>MOLECULE
guest-1_confgen4.mol2 : confsearch ligand conformer 796
          17          16           1
SMALL
USER_CHARGES
 
@<TRIPOS>ATOM
       1    N1      19.664938   17.816929   22.963998 N.4        1 MOL1        -0.5891
       2    H1      20.128721   17.199179   23.637877 H          1 MOL1         0.3726
       3    H2      18.673728   17.558208   22.957136 H          1 MOL1         0.3726
       4    H3      19.725042   18.768354   23.335511 H          1 MOL1         0.3726
       5    C1      20.284229   17.712203   21.583582 C.3        1 MOL1         0.0314
       6    H4      20.176416   16.672499   21.262759 H          1 MOL1         0.0999
       7    H5      21.352216   17.931989   21.663592 H          1 MOL1         0.0999
       8    C2      19.639005   18.633804   20.527197 C.3        1 MOL1        -0.1308
       9    H6      19.875126   18.223932   19.536188 H          1 MOL1         0.1025
      10    H7      18.545073   18.597687   20.615153 H          1 MOL1         0.1025
      11    C3      20.134857   20.101904   20.566164 C.3        1 MOL1        -0.1243
      12    H8      19.695311   20.638324   19.713496 H          1 MOL1         0.1025
      13    H9      21.222990   20.128645   20.413607 H          1 MOL1         0.1025
      14    C4      19.777820   20.862789   21.863259 C.3        1 MOL1        -0.2258
      15    H10     18.708497   20.774792   22.095544 H          1 MOL1         0.1036
      16    H11     20.007846   21.930598   21.753583 H          1 MOL1         0.1036
      17    H12     20.357397   20.495010   22.717957 H          1 MOL1         0.1036
@<TRIPOS>BOND
    1     1     2    1
    2     1     3    1
    3     1     4    1
    4     1     5    1
    5     5     6    1
    6     5     7    1
    7     5     8    1
    8     8     9    1
    9     8    10    1
   10     8    11    1
   11    11    12    1
   12    11    13    1
   13    11    14    1
   14    14    15    1
   15    14    16    1
   16    14    17    1
@<TRIPOS>SUBSTRUCTURE
       1 MOL1            1 RESIDUE      1      MOL     
@<SCITEGIC>MOL_PROPERTY
VConf Rank
SciTegic.value.IntegerValue
796

@<SCITEGIC>MOL_PROPERTY
Conf_Id
SciTegic.value.IntegerValue
44

@<SCITEGIC>MOL_PROPERTY
Delta U+W
SciTegic.value.DoubleValue
2.712

@<SCITEGIC>MOL_PROPERTY
U+W
SciTegic.value.DoubleValue
-13.153

@<SCITEGIC>MOL_PROPERTY
Grad RMS
SciTegic.value.DoubleValue
0.000000

@<SCITEGIC>MOL_PROPERTY
U
SciTegic.value.DoubleValue
47.423

@<SCITEGIC>MOL_PROPERTY
W
SciTegic.value.DoubleValue
-60.576

@<SCITEGIC>MOL_PROPERTY
W(PB)
SciTegic.value.DoubleValue
-62.262

@<SCITEGIC>MOL_PROPERTY
W(SA)
SciTegic.value.DoubleValue
1.687

@<SCITEGIC>MOL_PROPERTY
Valence
SciTegic.value.DoubleValue
2.414

@<SCITEGIC>MOL_PROPERTY
Coulomb
SciTegic.value.DoubleValue
44.831

@<SCITEGIC>MOL_PROPERTY
VdW
SciTegic.value.DoubleValue
0.178

@<SCITEGIC>MOL_PROPERTY
VdW6
SciTegic.value.DoubleValue
-3.743

@<SCITEGIC>MOL_PROPERTY
VdW12
SciTegic.value.DoubleValue
3.922

@<SCITEGIC>MOL_PROPERTY
Bond
SciTegic.value.DoubleValue
0.138

@<SCITEGIC>MOL_PROPERTY
Angle
SciTegic.value.DoubleValue
0.941

@<SCITEGIC>MOL_PROPERTY
Pdih
SciTegic.value.DoubleValue
1.335

@<SCITEGIC>MOL_PROPERTY
Idih
SciTegic.value.DoubleValue
0.000

@<SCITEGIC>MOL_PROPERTY
Tether
SciTegic.value.DoubleValue
0.000

@<TRIPOS>MOLECULE
guest-1_confgen4.mol2 : confsearch ligand conformer 797
          17          16           1
SMALL
USER_CHARGES
 
@<TRIPOS>ATOM
       1    N1      19.856746   17.491785   22.843682 N.4        1 MOL1        -0.5891
       2    H1      20.842710   17.666719   22.629859 H          1 MOL1         0.3726
       3    H2      19.590098   16.629603   22.358997 H          1 MOL1         0.3726
       4    H3      19.798237   17.298540   23.848620 H          1 MOL1         0.3726
       5    C1      18.978720   18.661280   22.442173 C.3        1 MOL1         0.0314
       6    H4      19.296287   19.536508   23.014825 H          1 MOL1         0.0999
       7    H5      17.952084   18.421931   22.732465 H          1 MOL1         0.0999
       8    C2      19.021200   18.982921   20.933974 C.3        1 MOL1        -0.1308
       9    H6      18.662052   18.112199   20.369525 H          1 MOL1         0.1025
      10    H7      18.311166   19.794815   20.727856 H          1 MOL1         0.1025
      11    C3      20.423377   19.388833   20.415619 C.3        1 MOL1        -0.1243
      12    H8      20.358695   19.583490   19.335883 H          1 MOL1         0.1025
      13    H9      21.125469   18.551937   20.531055 H          1 MOL1         0.1025
      14    C4      20.989057   20.643792   21.119097 C.3        1 MOL1        -0.2258
      15    H10     20.304500   21.495828   21.016707 H          1 MOL1         0.1036
      16    H11     21.951186   20.932514   20.676473 H          1 MOL1         0.1036
      17    H12     21.157060   20.466067   22.188740 H          1 MOL1         0.1036
@<TRIPOS>BOND
    1     1     2    1
    2     1     3    1
    3     1     4    1
    4     1     5    1
    5     5     6    1
    6     5     7    1
    7     5     8    1
    8     8     9    1
    9     8    10    1
   10     8    11    1
   11    11    12    1
   12    11    13    1
   13    11    14    1
   14    14    15    1
   15    14    16    1
   16    14    17    1
@<TRIPOS>SUBSTRUCTURE
       1 MOL1            1 RESIDUE      1      MOL     
@<SCITEGIC>MOL_PROPERTY
VConf Rank
SciTegic.value.IntegerValue
797

@<SCITEGIC>MOL_PROPERTY
Conf_Id
SciTegic.value.IntegerValue
1

@<SCITEGIC>MOL_PROPERTY
Delta U+W
SciTegic.value.DoubleValue
0.685

@<SCITEGIC>MOL_PROPERTY
U+W
SciTegic.value.DoubleValue
-15.179

@<SCITEGIC>MOL_PROPERTY
Grad RMS
SciTegic.value.DoubleValue
0.000000

@<SCITEGIC>MOL_PROPERTY
U
SciTegic.value.DoubleValue
45.697

@<SCITEGIC>MOL_PROPERTY
W
SciTegic.value.DoubleValue
-60.876

@<SCITEGIC>MOL_PROPERTY
W(PB)
SciTegic.value.DoubleValue
-62.586

@<SCITEGIC>MOL_PROPERTY
W(SA)
SciTegic.value.DoubleValue
1.710

@<SCITEGIC>MOL_PROPERTY
Valence
SciTegic.value.DoubleValue
1.263

@<SCITEGIC>MOL_PROPERTY
Coulomb
SciTegic.value.DoubleValue
44.179

@<SCITEGIC>MOL_PROPERTY
VdW
SciTegic.value.DoubleValue
0.255

@<SCITEGIC>MOL_PROPERTY
VdW6
SciTegic.value.DoubleValue
-3.552

@<SCITEGIC>MOL_PROPERTY
VdW12
SciTegic.value.DoubleValue
3.807

@<SCITEGIC>MOL_PROPERTY
Bond
SciTegic.value.DoubleValue
0.125

@<SCITEGIC>MOL_PROPERTY
Angle
SciTegic.value.DoubleValue
0.616

@<SCITEGIC>MOL_PROPERTY
Pdih
SciTegic.value.DoubleValue
0.521

@<SCITEGIC>MOL_PROPERTY
Idih
SciTegic.value.DoubleValue
0.000

@<SCITEGIC>MOL_PROPERTY
Tether
SciTegic.value.DoubleValue
0.000

@<TRIPOS>MOLECULE
guest-1_confgen4.mol2 : confsearch ligand conformer 798
          17          16           1
SMALL
USER_CHARGES
 
@<TRIPOS>ATOM
       1    N1      19.793787   17.133457   22.175116 N.4        1 MOL1        -0.5891
       2    H1      19.163537   17.026483   22.975565 H          1 MOL1         0.3726
       3    H2      20.681134   17.496274   22.534875 H          1 MOL1         0.3726
       4    H3      19.979563   16.192043   21.814706 H          1 MOL1         0.3726
       5    C1      19.206870   18.039498   21.109998 C.3        1 MOL1         0.0314
       6    H4      18.286512   17.573944   20.747042 H          1 MOL1         0.0999
       7    H5      19.913108   18.085940   20.277005 H          1 MOL1         0.0999
       8    C2      18.895561   19.465939   21.608267 C.3        1 MOL1        -0.1308
       9    H6      18.417770   20.026104   20.793567 H          1 MOL1         0.1025
      10    H7      18.154923   19.411529   22.417120 H          1 MOL1         0.1025
      11    C3      20.139323   20.246338   22.101816 C.3        1 MOL1        -0.1243
      12    H8      20.576138   19.746236   22.976884 H          1 MOL1         0.1025
      13    H9      19.819519   21.239094   22.448321 H          1 MOL1         0.1025
      14    C4      21.218513   20.419650   21.008605 C.3        1 MOL1        -0.2258
      15    H10     22.049404   21.032446   21.381527 H          1 MOL1         0.1036
      16    H11     20.805844   20.919085   20.122414 H          1 MOL1         0.1036
      17    H12     21.634479   19.453980   20.694914 H          1 MOL1         0.1036
@<TRIPOS>BOND
    1     1     2    1
    2     1     3    1
    3     1     4    1
    4     1     5    1
    5     5     6    1
    6     5     7    1
    7     5     8    1
    8     8     9    1
    9     8    10    1
   10     8    11    1
   11    11    12    1
   12    11    13    1
   13    11    14    1
   14    14    15    1
   15    14    16    1
   16    14    17    1
@<TRIPOS>SUBSTRUCTURE
       1 MOL1            1 RESIDUE      1      MOL     
@<SCITEGIC>MOL_PROPERTY
VConf Rank
SciTegic.value.IntegerValue
798

@<SCITEGIC>MOL_PROPERTY
Conf_Id
SciTegic.value.IntegerValue
43

@<SCITEGIC>MOL_PROPERTY
Delta U+W
SciTegic.value.DoubleValue
0.642

@<SCITEGIC>MOL_PROPERTY
U+W
SciTegic.value.DoubleValue
-15.222

@<SCITEGIC>MOL_PROPERTY
Grad RMS
SciTegic.value.DoubleValue
0.000000

@<SCITEGIC>MOL_PROPERTY
U
SciTegic.value.DoubleValue
45.697

@<SCITEGIC>MOL_PROPERTY
W
SciTegic.value.DoubleValue
-60.919

@<SCITEGIC>MOL_PROPERTY
W(PB)
SciTegic.value.DoubleValue
-62.631

@<SCITEGIC>MOL_PROPERTY
W(SA)
SciTegic.value.DoubleValue
1.712

@<SCITEGIC>MOL_PROPERTY
Valence
SciTegic.value.DoubleValue
1.262

@<SCITEGIC>MOL_PROPERTY
Coulomb
SciTegic.value.DoubleValue
44.179

@<SCITEGIC>MOL_PROPERTY
VdW
SciTegic.value.DoubleValue
0.255

@<SCITEGIC>MOL_PROPERTY
VdW6
SciTegic.value.DoubleValue
-3.552

@<SCITEGIC>MOL_PROPERTY
VdW12
SciTegic.value.DoubleValue
3.807

@<SCITEGIC>MOL_PROPERTY
Bond
SciTegic.value.DoubleValue
0.125

@<SCITEGIC>MOL_PROPERTY
Angle
SciTegic.value.DoubleValue
0.616

@<SCITEGIC>MOL_PROPERTY
Pdih
SciTegic.value.DoubleValue
0.521

@<SCITEGIC>MOL_PROPERTY
Idih
SciTegic.value.DoubleValue
0.000

@<SCITEGIC>MOL_PROPERTY
Tether
SciTegic.value.DoubleValue
0.000

@<TRIPOS>MOLECULE
guest-1_confgen4.mol2 : confsearch ligand conformer 799
          17          16           1
SMALL
USER_CHARGES
 
@<TRIPOS>ATOM
       1    N1      20.136026   21.620164   21.521673 N.4        1 MOL1        -0.5891
       2    H1      19.191454   21.808444   21.172346 H          1 MOL1         0.3726
       3    H2      20.771171   21.683300   20.720236 H          1 MOL1         0.3726
       4    H3      20.377672   22.391167   22.152601 H          1 MOL1         0.3726
       5    C1      20.227753   20.275181   22.214467 C.3        1 MOL1         0.0314
       6    H4      19.550299   20.290557   23.072572 H          1 MOL1         0.0999
       7    H5      21.249002   20.156003   22.586450 H          1 MOL1         0.0999
       8    C2      19.870906   19.093316   21.294622 C.3        1 MOL1        -0.1308
       9    H6      18.850382   19.224337   20.910751 H          1 MOL1         0.1025
      10    H7      20.543327   19.090157   20.426388 H          1 MOL1         0.1025
      11    C3      19.976785   17.743898   22.038518 C.3        1 MOL1        -0.1243
      12    H8      19.306373   17.747697   22.909644 H          1 MOL1         0.1025
      13    H9      20.997258   17.613641   22.425808 H          1 MOL1         0.1025
      14    C4      19.620161   16.553598   21.122024 C.3        1 MOL1        -0.2258
      15    H10     19.701380   15.605173   21.668781 H          1 MOL1         0.1036
      16    H11     20.296339   16.502930   20.258646 H          1 MOL1         0.1036
      17    H12     18.592121   16.638085   20.746255 H          1 MOL1         0.1036
@<TRIPOS>BOND
    1     1     2    1
    2     1     3    1
    3     1     4    1
    4     1     5    1
    5     5     6    1
    6     5     7    1
    7     5     8    1
    8     8     9    1
    9     8    10    1
   10     8    11    1
   11    11    12    1
   12    11    13    1
   13    11    14    1
   14    14    15    1
   15    14    16    1
   16    14    17    1
@<TRIPOS>SUBSTRUCTURE
       1 MOL1            1 RESIDUE      1      MOL     
@<SCITEGIC>MOL_PROPERTY
VConf Rank
SciTegic.value.IntegerValue
799

@<SCITEGIC>MOL_PROPERTY
Conf_Id
SciTegic.value.IntegerValue
7

@<SCITEGIC>MOL_PROPERTY
Delta U+W
SciTegic.value.DoubleValue
0.000

@<SCITEGIC>MOL_PROPERTY
U+W
SciTegic.value.DoubleValue
-15.865

@<SCITEGIC>MOL_PROPERTY
Grad RMS
SciTegic.value.DoubleValue
0.000000

@<SCITEGIC>MOL_PROPERTY
U
SciTegic.value.DoubleValue
44.664

@<SCITEGIC>MOL_PROPERTY
W
SciTegic.value.DoubleValue
-60.529

@<SCITEGIC>MOL_PROPERTY
W(PB)
SciTegic.value.DoubleValue
-62.309

@<SCITEGIC>MOL_PROPERTY
W(SA)
SciTegic.value.DoubleValue
1.780

@<SCITEGIC>MOL_PROPERTY
Valence
SciTegic.value.DoubleValue
0.872

@<SCITEGIC>MOL_PROPERTY
Coulomb
SciTegic.value.DoubleValue
43.648

@<SCITEGIC>MOL_PROPERTY
VdW
SciTegic.value.DoubleValue
0.144

@<SCITEGIC>MOL_PROPERTY
VdW6
SciTegic.value.DoubleValue
-2.370

@<SCITEGIC>MOL_PROPERTY
VdW12
SciTegic.value.DoubleValue
2.515

@<SCITEGIC>MOL_PROPERTY
Bond
SciTegic.value.DoubleValue
0.080

@<SCITEGIC>MOL_PROPERTY
Angle
SciTegic.value.DoubleValue
0.376

@<SCITEGIC>MOL_PROPERTY
Pdih
SciTegic.value.DoubleValue
0.416

@<SCITEGIC>MOL_PROPERTY
Idih
SciTegic.value.DoubleValue
0.000

@<SCITEGIC>MOL_PROPERTY
Tether
SciTegic.value.DoubleValue
0.000

@<TRIPOS>MOLECULE
guest-1_confgen4.mol2 : confsearch ligand conformer 800
          17          16           1
SMALL
USER_CHARGES
 
@<TRIPOS>ATOM
       1    N1      21.900281   19.252779   23.004259 N.4        1 MOL1        -0.5891
       2    H1      22.665765   18.751601   22.543278 H          1 MOL1         0.3726
       3    H2      21.576411   18.662493   23.776475 H          1 MOL1         0.3726
       4    H3      22.307958   20.093975   23.425011 H          1 MOL1         0.3726
       5    C1      20.780792   19.590678   22.039933 C.3        1 MOL1         0.0314
       6    H4      21.189022   20.243353   21.263549 H          1 MOL1         0.0999
       7    H5      20.019415   20.148381   22.591393 H          1 MOL1         0.0999
       8    C2      20.144791   18.347410   21.388975 C.3        1 MOL1        -0.1308
       9    H6      20.924932   17.773318   20.871599 H          1 MOL1         0.1025
      10    H7      19.736266   17.691083   22.168867 H          1 MOL1         0.1025
      11    C3      19.030911   18.707289   20.378152 C.3        1 MOL1        -0.1243
      12    H8      18.677358   17.786261   19.893704 H          1 MOL1         0.1025
      13    H9      19.445832   19.337055   19.578516 H          1 MOL1         0.1025
      14    C4      17.829025   19.425389   21.033713 C.3        1 MOL1        -0.2258
      15    H10     17.399059   18.818922   21.841459 H          1 MOL1         0.1036
      16    H11     17.038494   19.606294   20.293888 H          1 MOL1         0.1036
      17    H12     18.119070   20.397489   21.452028 H          1 MOL1         0.1036
@<TRIPOS>BOND
    1     1     2    1
    2     1     3    1
    3     1     4    1
    4     1     5    1
    5     5     6    1
    6     5     7    1
    7     5     8    1
    8     8     9    1
    9     8    10    1
   10     8    11    1
   11    11    12    1
   12    11    13    1
   13    11    14    1
   14    14    15    1
   15    14    16    1
   16    14    17    1
@<TRIPOS>SUBSTRUCTURE
       1 MOL1            1 RESIDUE      1      MOL     
@<SCITEGIC>MOL_PROPERTY
VConf Rank
SciTegic.value.IntegerValue
800

@<SCITEGIC>MOL_PROPERTY
Conf_Id
SciTegic.value.IntegerValue
36

@<SCITEGIC>MOL_PROPERTY
Delta U+W
SciTegic.value.DoubleValue
0.275

@<SCITEGIC>MOL_PROPERTY
U+W
SciTegic.value.DoubleValue
-15.590

@<SCITEGIC>MOL_PROPERTY
Grad RMS
SciTegic.value.DoubleValue
0.000000

@<SCITEGIC>MOL_PROPERTY
U
SciTegic.value.DoubleValue
45.174

@<SCITEGIC>MOL_PROPERTY
W
SciTegic.value.DoubleValue
-60.765

@<SCITEGIC>MOL_PROPERTY
W(PB)
SciTegic.value.DoubleValue
-62.518

@<SCITEGIC>MOL_PROPERTY
W(SA)
SciTegic.value.DoubleValue
1.754

@<SCITEGIC>MOL_PROPERTY
Valence
SciTegic.value.DoubleValue
1.161

@<SCITEGIC>MOL_PROPERTY
Coulomb
SciTegic.value.DoubleValue
43.789

@<SCITEGIC>MOL_PROPERTY
VdW
SciTegic.value.DoubleValue
0.224

@<SCITEGIC>MOL_PROPERTY
VdW6
SciTegic.value.DoubleValue
-2.897

@<SCITEGIC>MOL_PROPERTY
VdW12
SciTegic.value.DoubleValue
3.121

@<SCITEGIC>MOL_PROPERTY
Bond
SciTegic.value.DoubleValue
0.100

@<SCITEGIC>MOL_PROPERTY
Angle
SciTegic.value.DoubleValue
0.500

@<SCITEGIC>MOL_PROPERTY
Pdih
SciTegic.value.DoubleValue
0.561

@<SCITEGIC>MOL_PROPERTY
Idih
SciTegic.value.DoubleValue
0.000

@<SCITEGIC>MOL_PROPERTY
Tether
SciTegic.value.DoubleValue
0.000

@<TRIPOS>MOLECULE
guest-1_confgen4.mol2 : confsearch ligand conformer 801
          17          16           1
SMALL
USER_CHARGES
 
@<TRIPOS>ATOM
       1    N1      19.802317   17.317541   20.796297 N.4        1 MOL1        -0.5891
       2    H1      18.881441   17.682703   21.052204 H          1 MOL1         0.3726
       3    H2      20.065817   16.635172   21.513528 H          1 MOL1         0.3726
       4    H3      19.688980   16.798528   19.919597 H          1 MOL1         0.3726
       5    C1      20.830358   18.425037   20.667403 C.3        1 MOL1         0.0314
       6    H4      20.533230   19.081878   19.845468 H          1 MOL1         0.0999
       7    H5      21.777925   17.951765   20.395982 H          1 MOL1         0.0999
       8    C2      21.032991   19.255281   21.952412 C.3        1 MOL1        -0.1308
       9    H6      21.085279   18.590466   22.824774 H          1 MOL1         0.1025
      10    H7      22.015122   19.741864   21.885320 H          1 MOL1         0.1025
      11    C3      19.968723   20.359251   22.178879 C.3        1 MOL1        -0.1243
      12    H8      19.970333   21.054379   21.327517 H          1 MOL1         0.1025
      13    H9      20.266041   20.951877   23.055456 H          1 MOL1         0.1025
      14    C4      18.535401   19.827905   22.407221 C.3        1 MOL1        -0.2258
      15    H10     18.110605   19.408341   21.487879 H          1 MOL1         0.1036
      16    H11     17.873237   20.643844   22.724929 H          1 MOL1         0.1036
      17    H12     18.515399   19.058884   23.190394 H          1 MOL1         0.1036
@<TRIPOS>BOND
    1     1     2    1
    2     1     3    1
    3     1     4    1
    4     1     5    1
    5     5     6    1
    6     5     7    1
    7     5     8    1
    8     8     9    1
    9     8    10    1
   10     8    11    1
   11    11    12    1
   12    11    13    1
   13    11    14    1
   14    14    15    1
   15    14    16    1
   16    14    17    1
@<TRIPOS>SUBSTRUCTURE
       1 MOL1            1 RESIDUE      1      MOL     
@<SCITEGIC>MOL_PROPERTY
VConf Rank
SciTegic.value.IntegerValue
801

@<SCITEGIC>MOL_PROPERTY
Conf_Id
SciTegic.value.IntegerValue
19

@<SCITEGIC>MOL_PROPERTY
Delta U+W
SciTegic.value.DoubleValue
2.662

@<SCITEGIC>MOL_PROPERTY
U+W
SciTegic.value.DoubleValue
-13.203

@<SCITEGIC>MOL_PROPERTY
Grad RMS
SciTegic.value.DoubleValue
0.000000

@<SCITEGIC>MOL_PROPERTY
U
SciTegic.value.DoubleValue
47.423

@<SCITEGIC>MOL_PROPERTY
W
SciTegic.value.DoubleValue
-60.626

@<SCITEGIC>MOL_PROPERTY
W(PB)
SciTegic.value.DoubleValue
-62.328

@<SCITEGIC>MOL_PROPERTY
W(SA)
SciTegic.value.DoubleValue
1.702

@<SCITEGIC>MOL_PROPERTY
Valence
SciTegic.value.DoubleValue
2.414

@<SCITEGIC>MOL_PROPERTY
Coulomb
SciTegic.value.DoubleValue
44.831

@<SCITEGIC>MOL_PROPERTY
VdW
SciTegic.value.DoubleValue
0.178

@<SCITEGIC>MOL_PROPERTY
VdW6
SciTegic.value.DoubleValue
-3.743

@<SCITEGIC>MOL_PROPERTY
VdW12
SciTegic.value.DoubleValue
3.921

@<SCITEGIC>MOL_PROPERTY
Bond
SciTegic.value.DoubleValue
0.138

@<SCITEGIC>MOL_PROPERTY
Angle
SciTegic.value.DoubleValue
0.941

@<SCITEGIC>MOL_PROPERTY
Pdih
SciTegic.value.DoubleValue
1.335

@<SCITEGIC>MOL_PROPERTY
Idih
SciTegic.value.DoubleValue
0.000

@<SCITEGIC>MOL_PROPERTY
Tether
SciTegic.value.DoubleValue
0.000

@<TRIPOS>MOLECULE
guest-1_confgen4.mol2 : confsearch ligand conformer 802
          17          16           1
SMALL
USER_CHARGES
 
@<TRIPOS>ATOM
       1    N1      21.214579   20.206295   20.996202 N.4        1 MOL1        -0.5891
       2    H1      22.221696   20.358986   20.881207 H          1 MOL1         0.3726
       3    H2      20.754803   21.101952   20.806766 H          1 MOL1         0.3726
       4    H3      20.921924   19.556580   20.261990 H          1 MOL1         0.3726
       5    C1      20.877788   19.681252   22.378570 C.3        1 MOL1         0.0314
       6    H4      21.219637   20.430880   23.097412 H          1 MOL1         0.0999
       7    H5      21.447068   18.763875   22.550736 H          1 MOL1         0.0999
       8    C2      19.375103   19.414122   22.607025 C.3        1 MOL1        -0.1308
       9    H6      19.195593   19.415782   23.690362 H          1 MOL1         0.1025
      10    H7      18.780349   20.243539   22.201977 H          1 MOL1         0.1025
      11    C3      18.869523   18.062018   22.042306 C.3        1 MOL1        -0.1243
      12    H8      17.823037   17.927989   22.350354 H          1 MOL1         0.1025
      13    H9      19.429920   17.236362   22.503033 H          1 MOL1         0.1025
      14    C4      18.948690   17.942561   20.503364 C.3        1 MOL1        -0.2258
      15    H10     18.478871   18.804488   20.011933 H          1 MOL1         0.1036
      16    H11     18.424449   17.039569   20.164348 H          1 MOL1         0.1036
      17    H12     19.986181   17.860595   20.159017 H          1 MOL1         0.1036
@<TRIPOS>BOND
    1     1     2    1
    2     1     3    1
    3     1     4    1
    4     1     5    1
    5     5     6    1
    6     5     7    1
    7     5     8    1
    8     8     9    1
    9     8    10    1
   10     8    11    1
   11    11    12    1
   12    11    13    1
   13    11    14    1
   14    14    15    1
   15    14    16    1
   16    14    17    1
@<TRIPOS>SUBSTRUCTURE
       1 MOL1            1 RESIDUE      1      MOL     
@<SCITEGIC>MOL_PROPERTY
VConf Rank
SciTegic.value.IntegerValue
802

@<SCITEGIC>MOL_PROPERTY
Conf_Id
SciTegic.value.IntegerValue
44

@<SCITEGIC>MOL_PROPERTY
Delta U+W
SciTegic.value.DoubleValue
2.712

@<SCITEGIC>MOL_PROPERTY
U+W
SciTegic.value.DoubleValue
-13.153

@<SCITEGIC>MOL_PROPERTY
Grad RMS
SciTegic.value.DoubleValue
0.000000

@<SCITEGIC>MOL_PROPERTY
U
SciTegic.value.DoubleValue
47.423

@<SCITEGIC>MOL_PROPERTY
W
SciTegic.value.DoubleValue
-60.576

@<SCITEGIC>MOL_PROPERTY
W(PB)
SciTegic.value.DoubleValue
-62.262

@<SCITEGIC>MOL_PROPERTY
W(SA)
SciTegic.value.DoubleValue
1.687

@<SCITEGIC>MOL_PROPERTY
Valence
SciTegic.value.DoubleValue
2.414

@<SCITEGIC>MOL_PROPERTY
Coulomb
SciTegic.value.DoubleValue
44.831

@<SCITEGIC>MOL_PROPERTY
VdW
SciTegic.value.DoubleValue
0.178

@<SCITEGIC>MOL_PROPERTY
VdW6
SciTegic.value.DoubleValue
-3.743

@<SCITEGIC>MOL_PROPERTY
VdW12
SciTegic.value.DoubleValue
3.922

@<SCITEGIC>MOL_PROPERTY
Bond
SciTegic.value.DoubleValue
0.138

@<SCITEGIC>MOL_PROPERTY
Angle
SciTegic.value.DoubleValue
0.941

@<SCITEGIC>MOL_PROPERTY
Pdih
SciTegic.value.DoubleValue
1.335

@<SCITEGIC>MOL_PROPERTY
Idih
SciTegic.value.DoubleValue
0.000

@<SCITEGIC>MOL_PROPERTY
Tether
SciTegic.value.DoubleValue
0.000

@<TRIPOS>MOLECULE
guest-1_confgen4.mol2 : confsearch ligand conformer 803
          17          16           1
SMALL
USER_CHARGES
 
@<TRIPOS>ATOM
       1    N1      20.043575   20.232834   23.181676 N.4        1 MOL1        -0.5891
       2    H1      19.452800   19.440235   23.448543 H          1 MOL1         0.3726
       3    H2      19.431191   21.048509   23.086608 H          1 MOL1         0.3726
       4    H3      20.668126   20.420150   23.972572 H          1 MOL1         0.3726
       5    C1      20.816038   19.953631   21.906841 C.3        1 MOL1         0.0314
       6    H4      21.467680   19.094524   22.086015 H          1 MOL1         0.0999
       7    H5      21.449378   20.821641   21.704413 H          1 MOL1         0.0999
       8    C2      19.918654   19.679504   20.682310 C.3        1 MOL1        -0.1308
       9    H6      19.297212   20.563227   20.485856 H          1 MOL1         0.1025
      10    H7      20.558696   19.553483   19.798983 H          1 MOL1         0.1025
      11    C3      19.009041   18.434837   20.833848 C.3        1 MOL1        -0.1243
      12    H8      18.400238   18.328819   19.924989 H          1 MOL1         0.1025
      13    H9      18.298885   18.584285   21.658467 H          1 MOL1         0.1025
      14    C4      19.803513   17.128358   21.061282 C.3        1 MOL1        -0.2258
      15    H10     20.520614   16.955979   20.248190 H          1 MOL1         0.1036
      16    H11     19.124848   16.266332   21.097236 H          1 MOL1         0.1036
      17    H12     20.358152   17.152414   22.007721 H          1 MOL1         0.1036
@<TRIPOS>BOND
    1     1     2    1
    2     1     3    1
    3     1     4    1
    4     1     5    1
    5     5     6    1
    6     5     7    1
    7     5     8    1
    8     8     9    1
    9     8    10    1
   10     8    11    1
   11    11    12    1
   12    11    13    1
   13    11    14    1
   14    14    15    1
   15    14    16    1
   16    14    17    1
@<TRIPOS>SUBSTRUCTURE
       1 MOL1            1 RESIDUE      1      MOL     
@<SCITEGIC>MOL_PROPERTY
VConf Rank
SciTegic.value.IntegerValue
803

@<SCITEGIC>MOL_PROPERTY
Conf_Id
SciTegic.value.IntegerValue
1

@<SCITEGIC>MOL_PROPERTY
Delta U+W
SciTegic.value.DoubleValue
0.685

@<SCITEGIC>MOL_PROPERTY
U+W
SciTegic.value.DoubleValue
-15.179

@<SCITEGIC>MOL_PROPERTY
Grad RMS
SciTegic.value.DoubleValue
0.000000

@<SCITEGIC>MOL_PROPERTY
U
SciTegic.value.DoubleValue
45.697

@<SCITEGIC>MOL_PROPERTY
W
SciTegic.value.DoubleValue
-60.876

@<SCITEGIC>MOL_PROPERTY
W(PB)
SciTegic.value.DoubleValue
-62.586

@<SCITEGIC>MOL_PROPERTY
W(SA)
SciTegic.value.DoubleValue
1.710

@<SCITEGIC>MOL_PROPERTY
Valence
SciTegic.value.DoubleValue
1.263

@<SCITEGIC>MOL_PROPERTY
Coulomb
SciTegic.value.DoubleValue
44.179

@<SCITEGIC>MOL_PROPERTY
VdW
SciTegic.value.DoubleValue
0.255

@<SCITEGIC>MOL_PROPERTY
VdW6
SciTegic.value.DoubleValue
-3.552

@<SCITEGIC>MOL_PROPERTY
VdW12
SciTegic.value.DoubleValue
3.807

@<SCITEGIC>MOL_PROPERTY
Bond
SciTegic.value.DoubleValue
0.125

@<SCITEGIC>MOL_PROPERTY
Angle
SciTegic.value.DoubleValue
0.616

@<SCITEGIC>MOL_PROPERTY
Pdih
SciTegic.value.DoubleValue
0.521

@<SCITEGIC>MOL_PROPERTY
Idih
SciTegic.value.DoubleValue
0.000

@<SCITEGIC>MOL_PROPERTY
Tether
SciTegic.value.DoubleValue
0.000

@<TRIPOS>MOLECULE
guest-1_confgen4.mol2 : confsearch ligand conformer 804
          17          16           1
SMALL
USER_CHARGES
 
@<TRIPOS>ATOM
       1    N1      21.532658   18.532312   20.543178 N.4        1 MOL1        -0.5891
       2    H1      21.497321   18.924403   19.597454 H          1 MOL1         0.3726
       3    H2      20.915635   17.715255   20.555375 H          1 MOL1         0.3726
       4    H3      22.487449   18.188400   20.687284 H          1 MOL1         0.3726
       5    C1      21.135832   19.551726   21.593502 C.3        1 MOL1         0.0314
       6    H4      21.855608   20.373577   21.548538 H          1 MOL1         0.0999
       7    H5      21.223541   19.079306   22.575303 H          1 MOL1         0.0999
       8    C2      19.709797   20.111190   21.410891 C.3        1 MOL1        -0.1308
       9    H6      19.535257   20.883232   22.172002 H          1 MOL1         0.1025
      10    H7      19.643554   20.619082   20.439601 H          1 MOL1         0.1025
      11    C3      18.595432   19.039561   21.507648 C.3        1 MOL1        -0.1243
      12    H8      18.702703   18.308791   20.694554 H          1 MOL1         0.1025
      13    H9      17.622333   19.526002   21.351573 H          1 MOL1         0.1025
      14    C4      18.577531   18.305753   22.868163 C.3        1 MOL1        -0.2258
      15    H10     17.734368   17.604523   22.916343 H          1 MOL1         0.1036
      16    H11     18.469877   19.016037   23.698208 H          1 MOL1         0.1036
      17    H12     19.497091   17.728891   23.028124 H          1 MOL1         0.1036
@<TRIPOS>BOND
    1     1     2    1
    2     1     3    1
    3     1     4    1
    4     1     5    1
    5     5     6    1
    6     5     7    1
    7     5     8    1
    8     8     9    1
    9     8    10    1
   10     8    11    1
   11    11    12    1
   12    11    13    1
   13    11    14    1
   14    14    15    1
   15    14    16    1
   16    14    17    1
@<TRIPOS>SUBSTRUCTURE
       1 MOL1            1 RESIDUE      1      MOL     
@<SCITEGIC>MOL_PROPERTY
VConf Rank
SciTegic.value.IntegerValue
804

@<SCITEGIC>MOL_PROPERTY
Conf_Id
SciTegic.value.IntegerValue
43

@<SCITEGIC>MOL_PROPERTY
Delta U+W
SciTegic.value.DoubleValue
0.642

@<SCITEGIC>MOL_PROPERTY
U+W
SciTegic.value.DoubleValue
-15.222

@<SCITEGIC>MOL_PROPERTY
Grad RMS
SciTegic.value.DoubleValue
0.000000

@<SCITEGIC>MOL_PROPERTY
U
SciTegic.value.DoubleValue
45.697

@<SCITEGIC>MOL_PROPERTY
W
SciTegic.value.DoubleValue
-60.919

@<SCITEGIC>MOL_PROPERTY
W(PB)
SciTegic.value.DoubleValue
-62.631

@<SCITEGIC>MOL_PROPERTY
W(SA)
SciTegic.value.DoubleValue
1.712

@<SCITEGIC>MOL_PROPERTY
Valence
SciTegic.value.DoubleValue
1.262

@<SCITEGIC>MOL_PROPERTY
Coulomb
SciTegic.value.DoubleValue
44.179

@<SCITEGIC>MOL_PROPERTY
VdW
SciTegic.value.DoubleValue
0.255

@<SCITEGIC>MOL_PROPERTY
VdW6
SciTegic.value.DoubleValue
-3.552

@<SCITEGIC>MOL_PROPERTY
VdW12
SciTegic.value.DoubleValue
3.807

@<SCITEGIC>MOL_PROPERTY
Bond
SciTegic.value.DoubleValue
0.125

@<SCITEGIC>MOL_PROPERTY
Angle
SciTegic.value.DoubleValue
0.616

@<SCITEGIC>MOL_PROPERTY
Pdih
SciTegic.value.DoubleValue
0.521

@<SCITEGIC>MOL_PROPERTY
Idih
SciTegic.value.DoubleValue
0.000

@<SCITEGIC>MOL_PROPERTY
Tether
SciTegic.value.DoubleValue
0.000

@<TRIPOS>MOLECULE
guest-1_confgen4.mol2 : confsearch ligand conformer 805
          17          16           1
SMALL
USER_CHARGES
 
@<TRIPOS>ATOM
       1    N1      20.680991   18.856588   19.148673 N.4        1 MOL1        -0.5891
       2    H1      20.313375   19.756969   18.826386 H          1 MOL1         0.3726
       3    H2      20.005092   18.138755   18.870154 H          1 MOL1         0.3726
       4    H3      21.538439   18.678823   18.615670 H          1 MOL1         0.3726
       5    C1      20.934494   18.848711   20.643006 C.3        1 MOL1         0.0314
       6    H4      21.683836   19.614158   20.862326 H          1 MOL1         0.0999
       7    H5      21.352377   17.874063   20.909389 H          1 MOL1         0.0999
       8    C2      19.666258   19.112787   21.474932 C.3        1 MOL1        -0.1308
       9    H6      19.240817   20.085359   21.193694 H          1 MOL1         0.1025
      10    H7      18.910561   18.351176   21.240709 H          1 MOL1         0.1025
      11    C3      19.968200   19.096350   22.989554 C.3        1 MOL1        -0.1243
      12    H8      20.727032   19.856270   23.224124 H          1 MOL1         0.1025
      13    H9      20.397107   18.124189   23.271100 H          1 MOL1         0.1025
      14    C4      18.700578   19.360620   23.830536 C.3        1 MOL1        -0.2258
      15    H10     18.936120   19.344868   24.902600 H          1 MOL1         0.1036
      16    H11     17.935316   18.596112   23.643163 H          1 MOL1         0.1036
      17    H12     18.267815   20.341846   23.595764 H          1 MOL1         0.1036
@<TRIPOS>BOND
    1     1     2    1
    2     1     3    1
    3     1     4    1
    4     1     5    1
    5     5     6    1
    6     5     7    1
    7     5     8    1
    8     8     9    1
    9     8    10    1
   10     8    11    1
   11    11    12    1
   12    11    13    1
   13    11    14    1
   14    14    15    1
   15    14    16    1
   16    14    17    1
@<TRIPOS>SUBSTRUCTURE
       1 MOL1            1 RESIDUE      1      MOL     
@<SCITEGIC>MOL_PROPERTY
VConf Rank
SciTegic.value.IntegerValue
805

@<SCITEGIC>MOL_PROPERTY
Conf_Id
SciTegic.value.IntegerValue
7

@<SCITEGIC>MOL_PROPERTY
Delta U+W
SciTegic.value.DoubleValue
0.000

@<SCITEGIC>MOL_PROPERTY
U+W
SciTegic.value.DoubleValue
-15.865

@<SCITEGIC>MOL_PROPERTY
Grad RMS
SciTegic.value.DoubleValue
0.000000

@<SCITEGIC>MOL_PROPERTY
U
SciTegic.value.DoubleValue
44.664

@<SCITEGIC>MOL_PROPERTY
W
SciTegic.value.DoubleValue
-60.529

@<SCITEGIC>MOL_PROPERTY
W(PB)
SciTegic.value.DoubleValue
-62.309

@<SCITEGIC>MOL_PROPERTY
W(SA)
SciTegic.value.DoubleValue
1.780

@<SCITEGIC>MOL_PROPERTY
Valence
SciTegic.value.DoubleValue
0.872

@<SCITEGIC>MOL_PROPERTY
Coulomb
SciTegic.value.DoubleValue
43.648

@<SCITEGIC>MOL_PROPERTY
VdW
SciTegic.value.DoubleValue
0.144

@<SCITEGIC>MOL_PROPERTY
VdW6
SciTegic.value.DoubleValue
-2.370

@<SCITEGIC>MOL_PROPERTY
VdW12
SciTegic.value.DoubleValue
2.515

@<SCITEGIC>MOL_PROPERTY
Bond
SciTegic.value.DoubleValue
0.080

@<SCITEGIC>MOL_PROPERTY
Angle
SciTegic.value.DoubleValue
0.376

@<SCITEGIC>MOL_PROPERTY
Pdih
SciTegic.value.DoubleValue
0.416

@<SCITEGIC>MOL_PROPERTY
Idih
SciTegic.value.DoubleValue
0.000

@<SCITEGIC>MOL_PROPERTY
Tether
SciTegic.value.DoubleValue
0.000

@<TRIPOS>MOLECULE
guest-1_confgen4.mol2 : confsearch ligand conformer 806
          17          16           1
SMALL
USER_CHARGES
 
@<TRIPOS>ATOM
       1    N1      18.256773   17.584060   22.484303 N.4        1 MOL1        -0.5891
       2    H1      17.557943   17.415281   21.754373 H          1 MOL1         0.3726
       3    H2      17.831942   18.220006   23.166020 H          1 MOL1         0.3726
       4    H3      18.405069   16.690690   22.964659 H          1 MOL1         0.3726
       5    C1      19.547594   18.140120   21.916912 C.3        1 MOL1         0.0314
       6    H4      19.958469   17.400679   21.224224 H          1 MOL1         0.0999
       7    H5      20.251889   18.264127   22.743610 H          1 MOL1         0.0999
       8    C2      19.360376   19.484352   21.187563 C.3        1 MOL1        -0.1308
       9    H6      18.621505   19.358406   20.385014 H          1 MOL1         0.1025
      10    H7      18.946135   20.226554   21.882854 H          1 MOL1         0.1025
      11    C3      20.677113   20.021527   20.579574 C.3        1 MOL1        -0.1243
      12    H8      20.459983   20.935225   20.008619 H          1 MOL1         0.1025
      13    H9      21.075797   19.294176   19.858329 H          1 MOL1         0.1025
      14    C4      21.750743   20.336850   21.646274 C.3        1 MOL1        -0.2258
      15    H10     21.375041   21.057912   22.383866 H          1 MOL1         0.1036
      16    H11     22.642997   20.771747   21.177494 H          1 MOL1         0.1036
      17    H12     22.066013   19.432061   22.181113 H          1 MOL1         0.1036
@<TRIPOS>BOND
    1     1     2    1
    2     1     3    1
    3     1     4    1
    4     1     5    1
    5     5     6    1
    6     5     7    1
    7     5     8    1
    8     8     9    1
    9     8    10    1
   10     8    11    1
   11    11    12    1
   12    11    13    1
   13    11    14    1
   14    14    15    1
   15    14    16    1
   16    14    17    1
@<TRIPOS>SUBSTRUCTURE
       1 MOL1            1 RESIDUE      1      MOL     
@<SCITEGIC>MOL_PROPERTY
VConf Rank
SciTegic.value.IntegerValue
806

@<SCITEGIC>MOL_PROPERTY
Conf_Id
SciTegic.value.IntegerValue
36

@<SCITEGIC>MOL_PROPERTY
Delta U+W
SciTegic.value.DoubleValue
0.275

@<SCITEGIC>MOL_PROPERTY
U+W
SciTegic.value.DoubleValue
-15.590

@<SCITEGIC>MOL_PROPERTY
Grad RMS
SciTegic.value.DoubleValue
0.000000

@<SCITEGIC>MOL_PROPERTY
U
SciTegic.value.DoubleValue
45.174

@<SCITEGIC>MOL_PROPERTY
W
SciTegic.value.DoubleValue
-60.765

@<SCITEGIC>MOL_PROPERTY
W(PB)
SciTegic.value.DoubleValue
-62.518

@<SCITEGIC>MOL_PROPERTY
W(SA)
SciTegic.value.DoubleValue
1.754

@<SCITEGIC>MOL_PROPERTY
Valence
SciTegic.value.DoubleValue
1.161

@<SCITEGIC>MOL_PROPERTY
Coulomb
SciTegic.value.DoubleValue
43.789

@<SCITEGIC>MOL_PROPERTY
VdW
SciTegic.value.DoubleValue
0.224

@<SCITEGIC>MOL_PROPERTY
VdW6
SciTegic.value.DoubleValue
-2.897

@<SCITEGIC>MOL_PROPERTY
VdW12
SciTegic.value.DoubleValue
3.121

@<SCITEGIC>MOL_PROPERTY
Bond
SciTegic.value.DoubleValue
0.100

@<SCITEGIC>MOL_PROPERTY
Angle
SciTegic.value.DoubleValue
0.500

@<SCITEGIC>MOL_PROPERTY
Pdih
SciTegic.value.DoubleValue
0.561

@<SCITEGIC>MOL_PROPERTY
Idih
SciTegic.value.DoubleValue
0.000

@<SCITEGIC>MOL_PROPERTY
Tether
SciTegic.value.DoubleValue
0.000

@<TRIPOS>MOLECULE
guest-1_confgen4.mol2 : confsearch ligand conformer 807
          17          16           1
SMALL
USER_CHARGES
 
@<TRIPOS>ATOM
       1    N1      20.101276   19.714143   19.898459 N.4        1 MOL1        -0.5891
       2    H1      19.274245   20.076685   20.379529 H          1 MOL1         0.3726
       3    H2      19.779085   18.989789   19.249626 H          1 MOL1         0.3726
       4    H3      20.478424   20.477772   19.327975 H          1 MOL1         0.3726
       5    C1      21.130235   19.178407   20.875321 C.3        1 MOL1         0.0314
       6    H4      21.486614   20.006137   21.494320 H          1 MOL1         0.0999
       7    H5      21.973216   18.812216   20.283016 H          1 MOL1         0.0999
       8    C2      20.615198   18.036346   21.776457 C.3        1 MOL1        -0.1308
       9    H6      20.035713   17.319408   21.179861 H          1 MOL1         0.1025
      10    H7      21.488103   17.483103   22.147678 H          1 MOL1         0.1025
      11    C3      19.792248   18.506680   23.002933 C.3        1 MOL1        -0.1243
      12    H8      20.405064   19.173773   23.625400 H          1 MOL1         0.1025
      13    H9      19.568700   17.629682   23.626544 H          1 MOL1         0.1025
      14    C4      18.462542   19.210351   22.648518 C.3        1 MOL1        -0.2258
      15    H10     18.635565   20.198610   22.206835 H          1 MOL1         0.1036
      16    H11     17.859846   19.362914   23.553304 H          1 MOL1         0.1036
      17    H12     17.867124   18.608703   21.949484 H          1 MOL1         0.1036
@<TRIPOS>BOND
    1     1     2    1
    2     1     3    1
    3     1     4    1
    4     1     5    1
    5     5     6    1
    6     5     7    1
    7     5     8    1
    8     8     9    1
    9     8    10    1
   10     8    11    1
   11    11    12    1
   12    11    13    1
   13    11    14    1
   14    14    15    1
   15    14    16    1
   16    14    17    1
@<TRIPOS>SUBSTRUCTURE
       1 MOL1            1 RESIDUE      1      MOL     
@<SCITEGIC>MOL_PROPERTY
VConf Rank
SciTegic.value.IntegerValue
807

@<SCITEGIC>MOL_PROPERTY
Conf_Id
SciTegic.value.IntegerValue
19

@<SCITEGIC>MOL_PROPERTY
Delta U+W
SciTegic.value.DoubleValue
2.662

@<SCITEGIC>MOL_PROPERTY
U+W
SciTegic.value.DoubleValue
-13.203

@<SCITEGIC>MOL_PROPERTY
Grad RMS
SciTegic.value.DoubleValue
0.000000

@<SCITEGIC>MOL_PROPERTY
U
SciTegic.value.DoubleValue
47.423

@<SCITEGIC>MOL_PROPERTY
W
SciTegic.value.DoubleValue
-60.626

@<SCITEGIC>MOL_PROPERTY
W(PB)
SciTegic.value.DoubleValue
-62.328

@<SCITEGIC>MOL_PROPERTY
W(SA)
SciTegic.value.DoubleValue
1.702

@<SCITEGIC>MOL_PROPERTY
Valence
SciTegic.value.DoubleValue
2.414

@<SCITEGIC>MOL_PROPERTY
Coulomb
SciTegic.value.DoubleValue
44.831

@<SCITEGIC>MOL_PROPERTY
VdW
SciTegic.value.DoubleValue
0.178

@<SCITEGIC>MOL_PROPERTY
VdW6
SciTegic.value.DoubleValue
-3.743

@<SCITEGIC>MOL_PROPERTY
VdW12
SciTegic.value.DoubleValue
3.921

@<SCITEGIC>MOL_PROPERTY
Bond
SciTegic.value.DoubleValue
0.138

@<SCITEGIC>MOL_PROPERTY
Angle
SciTegic.value.DoubleValue
0.941

@<SCITEGIC>MOL_PROPERTY
Pdih
SciTegic.value.DoubleValue
1.335

@<SCITEGIC>MOL_PROPERTY
Idih
SciTegic.value.DoubleValue
0.000

@<SCITEGIC>MOL_PROPERTY
Tether
SciTegic.value.DoubleValue
0.000

@<TRIPOS>MOLECULE
guest-1_confgen4.mol2 : confsearch ligand conformer 808
          17          16           1
SMALL
USER_CHARGES
 
@<TRIPOS>ATOM
       1    N1      21.360819   19.621533   20.625554 N.4        1 MOL1        -0.5891
       2    H1      21.886116   20.418797   20.252383 H          1 MOL1         0.3726
       3    H2      21.742627   18.780561   20.182306 H          1 MOL1         0.3726
       4    H3      21.575402   19.559275   21.624014 H          1 MOL1         0.3726
       5    C1      19.871122   19.761953   20.378321 C.3        1 MOL1         0.0314
       6    H4      19.730683   19.819363   19.295492 H          1 MOL1         0.0999
       7    H5      19.533588   20.706520   20.813252 H          1 MOL1         0.0999
       8    C2      19.023312   18.598439   20.934258 C.3        1 MOL1        -0.1308
       9    H6      18.067126   18.593024   20.394327 H          1 MOL1         0.1025
      10    H7      19.504924   17.639023   20.703389 H          1 MOL1         0.1025
      11    C3      18.714079   18.695523   22.450059 C.3        1 MOL1        -0.1243
      12    H8      18.023758   17.882395   22.715143 H          1 MOL1         0.1025
      13    H9      18.175854   19.630927   22.658277 H          1 MOL1         0.1025
      14    C4      19.957642   18.602675   23.363191 C.3        1 MOL1        -0.2258
      15    H10     20.569740   17.725763   23.115172 H          1 MOL1         0.1036
      16    H11     19.652326   18.509194   24.413524 H          1 MOL1         0.1036
      17    H12     20.580095   19.501880   23.287941 H          1 MOL1         0.1036
@<TRIPOS>BOND
    1     1     2    1
    2     1     3    1
    3     1     4    1
    4     1     5    1
    5     5     6    1
    6     5     7    1
    7     5     8    1
    8     8     9    1
    9     8    10    1
   10     8    11    1
   11    11    12    1
   12    11    13    1
   13    11    14    1
   14    14    15    1
   15    14    16    1
   16    14    17    1
@<TRIPOS>SUBSTRUCTURE
       1 MOL1            1 RESIDUE      1      MOL     
@<SCITEGIC>MOL_PROPERTY
VConf Rank
SciTegic.value.IntegerValue
808

@<SCITEGIC>MOL_PROPERTY
Conf_Id
SciTegic.value.IntegerValue
44

@<SCITEGIC>MOL_PROPERTY
Delta U+W
SciTegic.value.DoubleValue
2.712

@<SCITEGIC>MOL_PROPERTY
U+W
SciTegic.value.DoubleValue
-13.153

@<SCITEGIC>MOL_PROPERTY
Grad RMS
SciTegic.value.DoubleValue
0.000000

@<SCITEGIC>MOL_PROPERTY
U
SciTegic.value.DoubleValue
47.423

@<SCITEGIC>MOL_PROPERTY
W
SciTegic.value.DoubleValue
-60.576

@<SCITEGIC>MOL_PROPERTY
W(PB)
SciTegic.value.DoubleValue
-62.262

@<SCITEGIC>MOL_PROPERTY
W(SA)
SciTegic.value.DoubleValue
1.687

@<SCITEGIC>MOL_PROPERTY
Valence
SciTegic.value.DoubleValue
2.414

@<SCITEGIC>MOL_PROPERTY
Coulomb
SciTegic.value.DoubleValue
44.831

@<SCITEGIC>MOL_PROPERTY
VdW
SciTegic.value.DoubleValue
0.178

@<SCITEGIC>MOL_PROPERTY
VdW6
SciTegic.value.DoubleValue
-3.743

@<SCITEGIC>MOL_PROPERTY
VdW12
SciTegic.value.DoubleValue
3.922

@<SCITEGIC>MOL_PROPERTY
Bond
SciTegic.value.DoubleValue
0.138

@<SCITEGIC>MOL_PROPERTY
Angle
SciTegic.value.DoubleValue
0.941

@<SCITEGIC>MOL_PROPERTY
Pdih
SciTegic.value.DoubleValue
1.335

@<SCITEGIC>MOL_PROPERTY
Idih
SciTegic.value.DoubleValue
0.000

@<SCITEGIC>MOL_PROPERTY
Tether
SciTegic.value.DoubleValue
0.000

@<TRIPOS>MOLECULE
guest-1_confgen4.mol2 : confsearch ligand conformer 809
          17          16           1
SMALL
USER_CHARGES
 
@<TRIPOS>ATOM
       1    N1      20.047267   17.584723   20.251897 N.4        1 MOL1        -0.5891
       2    H1      20.746254   18.289785   20.001394 H          1 MOL1         0.3726
       3    H2      19.294348   17.645502   19.559945 H          1 MOL1         0.3726
       4    H3      20.489881   16.668213   20.130368 H          1 MOL1         0.3726
       5    C1      19.533774   17.780091   21.665408 C.3        1 MOL1         0.0314
       6    H4      20.378376   17.673963   22.351111 H          1 MOL1         0.0999
       7    H5      18.824327   16.975224   21.876153 H          1 MOL1         0.0999
       8    C2      18.844954   19.141211   21.895184 C.3        1 MOL1        -0.1308
       9    H6      17.974312   19.221230   21.230857 H          1 MOL1         0.1025
      10    H7      18.450928   19.166920   22.919824 H          1 MOL1         0.1025
      11    C3      19.772949   20.361947   21.675671 C.3        1 MOL1        -0.1243
      12    H8      19.194966   21.280978   21.846612 H          1 MOL1         0.1025
      13    H9      20.102977   20.401944   20.628705 H          1 MOL1         0.1025
      14    C4      21.004449   20.362137   22.610125 C.3        1 MOL1        -0.2258
      15    H10     20.700022   20.323578   23.664120 H          1 MOL1         0.1036
      16    H11     21.596887   21.274965   22.466141 H          1 MOL1         0.1036
      17    H12     21.661972   19.506351   22.412034 H          1 MOL1         0.1036
@<TRIPOS>BOND
    1     1     2    1
    2     1     3    1
    3     1     4    1
    4     1     5    1
    5     5     6    1
    6     5     7    1
    7     5     8    1
    8     8     9    1
    9     8    10    1
   10     8    11    1
   11    11    12    1
   12    11    13    1
   13    11    14    1
   14    14    15    1
   15    14    16    1
   16    14    17    1
@<TRIPOS>SUBSTRUCTURE
       1 MOL1            1 RESIDUE      1      MOL     
@<SCITEGIC>MOL_PROPERTY
VConf Rank
SciTegic.value.IntegerValue
809

@<SCITEGIC>MOL_PROPERTY
Conf_Id
SciTegic.value.IntegerValue
1

@<SCITEGIC>MOL_PROPERTY
Delta U+W
SciTegic.value.DoubleValue
0.685

@<SCITEGIC>MOL_PROPERTY
U+W
SciTegic.value.DoubleValue
-15.179

@<SCITEGIC>MOL_PROPERTY
Grad RMS
SciTegic.value.DoubleValue
0.000000

@<SCITEGIC>MOL_PROPERTY
U
SciTegic.value.DoubleValue
45.697

@<SCITEGIC>MOL_PROPERTY
W
SciTegic.value.DoubleValue
-60.876

@<SCITEGIC>MOL_PROPERTY
W(PB)
SciTegic.value.DoubleValue
-62.586

@<SCITEGIC>MOL_PROPERTY
W(SA)
SciTegic.value.DoubleValue
1.710

@<SCITEGIC>MOL_PROPERTY
Valence
SciTegic.value.DoubleValue
1.263

@<SCITEGIC>MOL_PROPERTY
Coulomb
SciTegic.value.DoubleValue
44.179

@<SCITEGIC>MOL_PROPERTY
VdW
SciTegic.value.DoubleValue
0.255

@<SCITEGIC>MOL_PROPERTY
VdW6
SciTegic.value.DoubleValue
-3.552

@<SCITEGIC>MOL_PROPERTY
VdW12
SciTegic.value.DoubleValue
3.807

@<SCITEGIC>MOL_PROPERTY
Bond
SciTegic.value.DoubleValue
0.125

@<SCITEGIC>MOL_PROPERTY
Angle
SciTegic.value.DoubleValue
0.616

@<SCITEGIC>MOL_PROPERTY
Pdih
SciTegic.value.DoubleValue
0.521

@<SCITEGIC>MOL_PROPERTY
Idih
SciTegic.value.DoubleValue
0.000

@<SCITEGIC>MOL_PROPERTY
Tether
SciTegic.value.DoubleValue
0.000

@<TRIPOS>MOLECULE
guest-1_confgen4.mol2 : confsearch ligand conformer 810
          17          16           1
SMALL
USER_CHARGES
 
@<TRIPOS>ATOM
       1    N1      19.204168   17.836174   23.013471 N.4        1 MOL1        -0.5891
       2    H1      19.954511   17.354821   23.518112 H          1 MOL1         0.3726
       3    H2      19.081574   17.352110   22.119546 H          1 MOL1         0.3726
       4    H3      18.343787   17.692774   23.551846 H          1 MOL1         0.3726
       5    C1      19.508169   19.308975   22.817770 C.3        1 MOL1         0.0314
       6    H4      19.588454   19.766764   23.807478 H          1 MOL1         0.0999
       7    H5      18.659045   19.765316   22.302457 H          1 MOL1         0.0999
       8    C2      20.803659   19.577376   22.024305 C.3        1 MOL1        -0.1308
       9    H6      20.975440   20.661358   21.988562 H          1 MOL1         0.1025
      10    H7      21.655569   19.150791   22.570220 H          1 MOL1         0.1025
      11    C3      20.785665   19.016740   20.580379 C.3        1 MOL1        -0.1243
      12    H8      20.706562   17.921320   20.601607 H          1 MOL1         0.1025
      13    H9      21.748915   19.241856   20.101446 H          1 MOL1         0.1025
      14    C4      19.646036   19.604384   19.716829 C.3        1 MOL1        -0.2258
      15    H10     19.711248   19.230246   18.686908 H          1 MOL1         0.1036
      16    H11     19.704230   20.699949   19.679169 H          1 MOL1         0.1036
      17    H12     18.658955   19.327087   20.107633 H          1 MOL1         0.1036
@<TRIPOS>BOND
    1     1     2    1
    2     1     3    1
    3     1     4    1
    4     1     5    1
    5     5     6    1
    6     5     7    1
    7     5     8    1
    8     8     9    1
    9     8    10    1
   10     8    11    1
   11    11    12    1
   12    11    13    1
   13    11    14    1
   14    14    15    1
   15    14    16    1
   16    14    17    1
@<TRIPOS>SUBSTRUCTURE
       1 MOL1            1 RESIDUE      1      MOL     
@<SCITEGIC>MOL_PROPERTY
VConf Rank
SciTegic.value.IntegerValue
810

@<SCITEGIC>MOL_PROPERTY
Conf_Id
SciTegic.value.IntegerValue
43

@<SCITEGIC>MOL_PROPERTY
Delta U+W
SciTegic.value.DoubleValue
0.642

@<SCITEGIC>MOL_PROPERTY
U+W
SciTegic.value.DoubleValue
-15.222

@<SCITEGIC>MOL_PROPERTY
Grad RMS
SciTegic.value.DoubleValue
0.000000

@<SCITEGIC>MOL_PROPERTY
U
SciTegic.value.DoubleValue
45.697

@<SCITEGIC>MOL_PROPERTY
W
SciTegic.value.DoubleValue
-60.919

@<SCITEGIC>MOL_PROPERTY
W(PB)
SciTegic.value.DoubleValue
-62.631

@<SCITEGIC>MOL_PROPERTY
W(SA)
SciTegic.value.DoubleValue
1.712

@<SCITEGIC>MOL_PROPERTY
Valence
SciTegic.value.DoubleValue
1.262

@<SCITEGIC>MOL_PROPERTY
Coulomb
SciTegic.value.DoubleValue
44.179

@<SCITEGIC>MOL_PROPERTY
VdW
SciTegic.value.DoubleValue
0.255

@<SCITEGIC>MOL_PROPERTY
VdW6
SciTegic.value.DoubleValue
-3.552

@<SCITEGIC>MOL_PROPERTY
VdW12
SciTegic.value.DoubleValue
3.807

@<SCITEGIC>MOL_PROPERTY
Bond
SciTegic.value.DoubleValue
0.125

@<SCITEGIC>MOL_PROPERTY
Angle
SciTegic.value.DoubleValue
0.616

@<SCITEGIC>MOL_PROPERTY
Pdih
SciTegic.value.DoubleValue
0.521

@<SCITEGIC>MOL_PROPERTY
Idih
SciTegic.value.DoubleValue
0.000

@<SCITEGIC>MOL_PROPERTY
Tether
SciTegic.value.DoubleValue
0.000

@<TRIPOS>MOLECULE
guest-1_confgen4.mol2 : confsearch ligand conformer 811
          17          16           1
SMALL
USER_CHARGES
 
@<TRIPOS>ATOM
       1    N1      20.597849   21.509641   21.177271 N.4        1 MOL1        -0.5891
       2    H1      19.674627   21.838673   20.878785 H          1 MOL1         0.3726
       3    H2      21.151254   21.356352   20.328777 H          1 MOL1         0.3726
       4    H3      21.039272   22.284511   21.682870 H          1 MOL1         0.3726
       5    C1      20.507043   20.259624   22.029662 C.3        1 MOL1         0.0314
       6    H4      19.932413   20.504070   22.927197 H          1 MOL1         0.0999
       7    H5      21.520268   19.985440   22.335801 H          1 MOL1         0.0999
       8    C2      19.848335   19.074507   21.300372 C.3        1 MOL1        -0.1308
       9    H6      18.836836   19.358744   20.980889 H          1 MOL1         0.1025
      10    H7      20.419304   18.841804   20.391618 H          1 MOL1         0.1025
      11    C3      19.775599   17.823160   22.202793 C.3        1 MOL1        -0.1243
      12    H8      19.206999   18.056419   23.114172 H          1 MOL1         0.1025
      13    H9      20.787529   17.540063   22.525561 H          1 MOL1         0.1025
      14    C4      19.115880   16.630161   21.477894 C.3        1 MOL1        -0.2258
      15    H10     19.073775   15.752030   22.135284 H          1 MOL1         0.1036
      16    H11     19.682206   16.350991   20.579815 H          1 MOL1         0.1036
      17    H12     18.089217   16.871454   21.173021 H          1 MOL1         0.1036
@<TRIPOS>BOND
    1     1     2    1
    2     1     3    1
    3     1     4    1
    4     1     5    1
    5     5     6    1
    6     5     7    1
    7     5     8    1
    8     8     9    1
    9     8    10    1
   10     8    11    1
   11    11    12    1
   12    11    13    1
   13    11    14    1
   14    14    15    1
   15    14    16    1
   16    14    17    1
@<TRIPOS>SUBSTRUCTURE
       1 MOL1            1 RESIDUE      1      MOL     
@<SCITEGIC>MOL_PROPERTY
VConf Rank
SciTegic.value.IntegerValue
811

@<SCITEGIC>MOL_PROPERTY
Conf_Id
SciTegic.value.IntegerValue
7

@<SCITEGIC>MOL_PROPERTY
Delta U+W
SciTegic.value.DoubleValue
0.000

@<SCITEGIC>MOL_PROPERTY
U+W
SciTegic.value.DoubleValue
-15.865

@<SCITEGIC>MOL_PROPERTY
Grad RMS
SciTegic.value.DoubleValue
0.000000

@<SCITEGIC>MOL_PROPERTY
U
SciTegic.value.DoubleValue
44.664

@<SCITEGIC>MOL_PROPERTY
W
SciTegic.value.DoubleValue
-60.529

@<SCITEGIC>MOL_PROPERTY
W(PB)
SciTegic.value.DoubleValue
-62.309

@<SCITEGIC>MOL_PROPERTY
W(SA)
SciTegic.value.DoubleValue
1.780

@<SCITEGIC>MOL_PROPERTY
Valence
SciTegic.value.DoubleValue
0.872

@<SCITEGIC>MOL_PROPERTY
Coulomb
SciTegic.value.DoubleValue
43.648

@<SCITEGIC>MOL_PROPERTY
VdW
SciTegic.value.DoubleValue
0.144

@<SCITEGIC>MOL_PROPERTY
VdW6
SciTegic.value.DoubleValue
-2.370

@<SCITEGIC>MOL_PROPERTY
VdW12
SciTegic.value.DoubleValue
2.515

@<SCITEGIC>MOL_PROPERTY
Bond
SciTegic.value.DoubleValue
0.080

@<SCITEGIC>MOL_PROPERTY
Angle
SciTegic.value.DoubleValue
0.376

@<SCITEGIC>MOL_PROPERTY
Pdih
SciTegic.value.DoubleValue
0.416

@<SCITEGIC>MOL_PROPERTY
Idih
SciTegic.value.DoubleValue
0.000

@<SCITEGIC>MOL_PROPERTY
Tether
SciTegic.value.DoubleValue
0.000

@<TRIPOS>MOLECULE
guest-1_confgen4.mol2 : confsearch ligand conformer 812
          17          16           1
SMALL
USER_CHARGES
 
@<TRIPOS>ATOM
       1    N1      19.256093   20.924867   20.195122 N.4        1 MOL1        -0.5891
       2    H1      19.810789   21.751383   20.437673 H          1 MOL1         0.3726
       3    H2      18.318719   21.067329   20.583299 H          1 MOL1         0.3726
       4    H3      19.157299   20.923423   19.174788 H          1 MOL1         0.3726
       5    C1      19.891882   19.645626   20.701748 C.3        1 MOL1         0.0314
       6    H4      20.871004   19.543452   20.226049 H          1 MOL1         0.0999
       7    H5      19.265616   18.809274   20.380588 H          1 MOL1         0.0999
       8    C2      20.055085   19.614490   22.233530 C.3        1 MOL1        -0.1308
       9    H6      20.651783   20.480521   22.549469 H          1 MOL1         0.1025
      10    H7      19.071856   19.718794   22.711305 H          1 MOL1         0.1025
      11    C3      20.740406   18.321555   22.734190 C.3        1 MOL1        -0.1243
      12    H8      20.898325   18.398415   23.819149 H          1 MOL1         0.1025
      13    H9      21.738505   18.232677   22.282437 H          1 MOL1         0.1025
      14    C4      19.919001   17.046891   22.433387 C.3        1 MOL1        -0.2258
      15    H10     18.913643   17.112696   22.869335 H          1 MOL1         0.1036
      16    H11     20.411032   16.162615   22.858792 H          1 MOL1         0.1036
      17    H12     19.814345   16.879766   21.353939 H          1 MOL1         0.1036
@<TRIPOS>BOND
    1     1     2    1
    2     1     3    1
    3     1     4    1
    4     1     5    1
    5     5     6    1
    6     5     7    1
    7     5     8    1
    8     8     9    1
    9     8    10    1
   10     8    11    1
   11    11    12    1
   12    11    13    1
   13    11    14    1
   14    14    15    1
   15    14    16    1
   16    14    17    1
@<TRIPOS>SUBSTRUCTURE
       1 MOL1            1 RESIDUE      1      MOL     
@<SCITEGIC>MOL_PROPERTY
VConf Rank
SciTegic.value.IntegerValue
812

@<SCITEGIC>MOL_PROPERTY
Conf_Id
SciTegic.value.IntegerValue
36

@<SCITEGIC>MOL_PROPERTY
Delta U+W
SciTegic.value.DoubleValue
0.275

@<SCITEGIC>MOL_PROPERTY
U+W
SciTegic.value.DoubleValue
-15.590

@<SCITEGIC>MOL_PROPERTY
Grad RMS
SciTegic.value.DoubleValue
0.000000

@<SCITEGIC>MOL_PROPERTY
U
SciTegic.value.DoubleValue
45.174

@<SCITEGIC>MOL_PROPERTY
W
SciTegic.value.DoubleValue
-60.765

@<SCITEGIC>MOL_PROPERTY
W(PB)
SciTegic.value.DoubleValue
-62.518

@<SCITEGIC>MOL_PROPERTY
W(SA)
SciTegic.value.DoubleValue
1.754

@<SCITEGIC>MOL_PROPERTY
Valence
SciTegic.value.DoubleValue
1.161

@<SCITEGIC>MOL_PROPERTY
Coulomb
SciTegic.value.DoubleValue
43.789

@<SCITEGIC>MOL_PROPERTY
VdW
SciTegic.value.DoubleValue
0.224

@<SCITEGIC>MOL_PROPERTY
VdW6
SciTegic.value.DoubleValue
-2.897

@<SCITEGIC>MOL_PROPERTY
VdW12
SciTegic.value.DoubleValue
3.121

@<SCITEGIC>MOL_PROPERTY
Bond
SciTegic.value.DoubleValue
0.100

@<SCITEGIC>MOL_PROPERTY
Angle
SciTegic.value.DoubleValue
0.500

@<SCITEGIC>MOL_PROPERTY
Pdih
SciTegic.value.DoubleValue
0.561

@<SCITEGIC>MOL_PROPERTY
Idih
SciTegic.value.DoubleValue
0.000

@<SCITEGIC>MOL_PROPERTY
Tether
SciTegic.value.DoubleValue
0.000

@<TRIPOS>MOLECULE
guest-1_confgen4.mol2 : confsearch ligand conformer 813
          17          16           1
SMALL
USER_CHARGES
 
@<TRIPOS>ATOM
       1    N1      20.178762   19.112183   23.440431 N.4        1 MOL1        -0.5891
       2    H1      19.186012   19.061155   23.198176 H          1 MOL1         0.3726
       3    H2      20.392032   20.095726   23.631844 H          1 MOL1         0.3726
       4    H3      20.301410   18.604344   24.322407 H          1 MOL1         0.3726
       5    C1      21.056004   18.549437   22.338708 C.3        1 MOL1         0.0314
       6    H4      20.832972   17.485126   22.225569 H          1 MOL1         0.0999
       7    H5      22.092026   18.643551   22.675367 H          1 MOL1         0.0999
       8    C2      20.902518   19.262718   20.978824 C.3        1 MOL1        -0.1308
       9    H6      20.878881   20.350626   21.125882 H          1 MOL1         0.1025
      10    H7      21.806195   19.058073   20.389472 H          1 MOL1         0.1025
      11    C3      19.677337   18.804321   20.147254 C.3        1 MOL1        -0.1243
      12    H8      19.745473   17.724650   19.953112 H          1 MOL1         0.1025
      13    H9      19.723983   19.293283   19.164030 H          1 MOL1         0.1025
      14    C4      18.310332   19.126295   20.792630 C.3        1 MOL1        -0.2258
      15    H10     18.124561   18.501868   21.674252 H          1 MOL1         0.1036
      16    H11     17.497822   18.929126   20.081218 H          1 MOL1         0.1036
      17    H12     18.246878   20.182236   21.086085 H          1 MOL1         0.1036
@<TRIPOS>BOND
    1     1     2    1
    2     1     3    1
    3     1     4    1
    4     1     5    1
    5     5     6    1
    6     5     7    1
    7     5     8    1
    8     8     9    1
    9     8    10    1
   10     8    11    1
   11    11    12    1
   12    11    13    1
   13    11    14    1
   14    14    15    1
   15    14    16    1
   16    14    17    1
@<TRIPOS>SUBSTRUCTURE
       1 MOL1            1 RESIDUE      1      MOL     
@<SCITEGIC>MOL_PROPERTY
VConf Rank
SciTegic.value.IntegerValue
813

@<SCITEGIC>MOL_PROPERTY
Conf_Id
SciTegic.value.IntegerValue
19

@<SCITEGIC>MOL_PROPERTY
Delta U+W
SciTegic.value.DoubleValue
2.662

@<SCITEGIC>MOL_PROPERTY
U+W
SciTegic.value.DoubleValue
-13.203

@<SCITEGIC>MOL_PROPERTY
Grad RMS
SciTegic.value.DoubleValue
0.000000

@<SCITEGIC>MOL_PROPERTY
U
SciTegic.value.DoubleValue
47.423

@<SCITEGIC>MOL_PROPERTY
W
SciTegic.value.DoubleValue
-60.626

@<SCITEGIC>MOL_PROPERTY
W(PB)
SciTegic.value.DoubleValue
-62.328

@<SCITEGIC>MOL_PROPERTY
W(SA)
SciTegic.value.DoubleValue
1.702

@<SCITEGIC>MOL_PROPERTY
Valence
SciTegic.value.DoubleValue
2.414

@<SCITEGIC>MOL_PROPERTY
Coulomb
SciTegic.value.DoubleValue
44.831

@<SCITEGIC>MOL_PROPERTY
VdW
SciTegic.value.DoubleValue
0.178

@<SCITEGIC>MOL_PROPERTY
VdW6
SciTegic.value.DoubleValue
-3.743

@<SCITEGIC>MOL_PROPERTY
VdW12
SciTegic.value.DoubleValue
3.921

@<SCITEGIC>MOL_PROPERTY
Bond
SciTegic.value.DoubleValue
0.138

@<SCITEGIC>MOL_PROPERTY
Angle
SciTegic.value.DoubleValue
0.941

@<SCITEGIC>MOL_PROPERTY
Pdih
SciTegic.value.DoubleValue
1.335

@<SCITEGIC>MOL_PROPERTY
Idih
SciTegic.value.DoubleValue
0.000

@<SCITEGIC>MOL_PROPERTY
Tether
SciTegic.value.DoubleValue
0.000

@<TRIPOS>MOLECULE
guest-1_confgen4.mol2 : confsearch ligand conformer 814
          17          16           1
SMALL
USER_CHARGES
 
@<TRIPOS>ATOM
       1    N1      19.064746   19.180808   19.934456 N.4        1 MOL1        -0.5891
       2    H1      18.251295   19.507559   19.403084 H          1 MOL1         0.3726
       3    H2      19.595725   18.562083   19.314196 H          1 MOL1         0.3726
       4    H3      19.652362   19.997658   20.119678 H          1 MOL1         0.3726
       5    C1      18.656953   18.479381   21.215762 C.3        1 MOL1         0.0314
       6    H4      18.038303   17.624511   20.929394 H          1 MOL1         0.0999
       7    H5      18.038246   19.161925   21.804521 H          1 MOL1         0.0999
       8    C2      19.841090   17.979389   22.069834 C.3        1 MOL1        -0.1308
       9    H6      19.465524   17.188518   22.732646 H          1 MOL1         0.1025
      10    H7      20.592570   17.501979   21.427116 H          1 MOL1         0.1025
      11    C3      20.501060   19.068381   22.953711 C.3        1 MOL1        -0.1243
      12    H8      21.254783   18.586111   23.591918 H          1 MOL1         0.1025
      13    H9      19.752301   19.494015   23.636512 H          1 MOL1         0.1025
      14    C4      21.182627   20.207501   22.162036 C.3        1 MOL1        -0.2258
      15    H10     21.869177   19.810171   21.403134 H          1 MOL1         0.1036
      16    H11     21.767034   20.844420   22.838762 H          1 MOL1         0.1036
      17    H12     20.445414   20.852436   21.669842 H          1 MOL1         0.1036
@<TRIPOS>BOND
    1     1     2    1
    2     1     3    1
    3     1     4    1
    4     1     5    1
    5     5     6    1
    6     5     7    1
    7     5     8    1
    8     8     9    1
    9     8    10    1
   10     8    11    1
   11    11    12    1
   12    11    13    1
   13    11    14    1
   14    14    15    1
   15    14    16    1
   16    14    17    1
@<TRIPOS>SUBSTRUCTURE
       1 MOL1            1 RESIDUE      1      MOL     
@<SCITEGIC>MOL_PROPERTY
VConf Rank
SciTegic.value.IntegerValue
814

@<SCITEGIC>MOL_PROPERTY
Conf_Id
SciTegic.value.IntegerValue
44

@<SCITEGIC>MOL_PROPERTY
Delta U+W
SciTegic.value.DoubleValue
2.712

@<SCITEGIC>MOL_PROPERTY
U+W
SciTegic.value.DoubleValue
-13.153

@<SCITEGIC>MOL_PROPERTY
Grad RMS
SciTegic.value.DoubleValue
0.000000

@<SCITEGIC>MOL_PROPERTY
U
SciTegic.value.DoubleValue
47.423

@<SCITEGIC>MOL_PROPERTY
W
SciTegic.value.DoubleValue
-60.576

@<SCITEGIC>MOL_PROPERTY
W(PB)
SciTegic.value.DoubleValue
-62.262

@<SCITEGIC>MOL_PROPERTY
W(SA)
SciTegic.value.DoubleValue
1.687

@<SCITEGIC>MOL_PROPERTY
Valence
SciTegic.value.DoubleValue
2.414

@<SCITEGIC>MOL_PROPERTY
Coulomb
SciTegic.value.DoubleValue
44.831

@<SCITEGIC>MOL_PROPERTY
VdW
SciTegic.value.DoubleValue
0.178

@<SCITEGIC>MOL_PROPERTY
VdW6
SciTegic.value.DoubleValue
-3.743

@<SCITEGIC>MOL_PROPERTY
VdW12
SciTegic.value.DoubleValue
3.922

@<SCITEGIC>MOL_PROPERTY
Bond
SciTegic.value.DoubleValue
0.138

@<SCITEGIC>MOL_PROPERTY
Angle
SciTegic.value.DoubleValue
0.941

@<SCITEGIC>MOL_PROPERTY
Pdih
SciTegic.value.DoubleValue
1.335

@<SCITEGIC>MOL_PROPERTY
Idih
SciTegic.value.DoubleValue
0.000

@<SCITEGIC>MOL_PROPERTY
Tether
SciTegic.value.DoubleValue
0.000

@<TRIPOS>MOLECULE
guest-1_confgen4.mol2 : confsearch ligand conformer 815
          17          16           1
SMALL
USER_CHARGES
 
@<TRIPOS>ATOM
       1    N1      18.491933   18.447199   20.350117 N.4        1 MOL1        -0.5891
       2    H1      18.152264   19.293363   20.816034 H          1 MOL1         0.3726
       3    H2      17.961755   17.657956   20.731411 H          1 MOL1         0.3726
       4    H3      18.236231   18.527259   19.360736 H          1 MOL1         0.3726
       5    C1      19.986412   18.266257   20.533555 C.3        1 MOL1         0.0314
       6    H4      20.490326   19.124101   20.080808 H          1 MOL1         0.0999
       7    H5      20.283496   17.370151   19.981945 H          1 MOL1         0.0999
       8    C2      20.420493   18.126152   22.007280 C.3        1 MOL1        -0.1308
       9    H6      19.941044   17.238789   22.441405 H          1 MOL1         0.1025
      10    H7      21.501461   17.935515   22.038430 H          1 MOL1         0.1025
      11    C3      20.096393   19.364287   22.879941 C.3        1 MOL1        -0.1243
      12    H8      20.426610   19.167614   23.909592 H          1 MOL1         0.1025
      13    H9      19.009533   19.514255   22.933778 H          1 MOL1         0.1025
      14    C4      20.775852   20.657004   22.372973 C.3        1 MOL1        -0.2258
      15    H10     21.864772   20.532389   22.311397 H          1 MOL1         0.1036
      16    H11     20.572715   21.492043   23.055918 H          1 MOL1         0.1036
      17    H12     20.407352   20.944430   21.380228 H          1 MOL1         0.1036
@<TRIPOS>BOND
    1     1     2    1
    2     1     3    1
    3     1     4    1
    4     1     5    1
    5     5     6    1
    6     5     7    1
    7     5     8    1
    8     8     9    1
    9     8    10    1
   10     8    11    1
   11    11    12    1
   12    11    13    1
   13    11    14    1
   14    14    15    1
   15    14    16    1
   16    14    17    1
@<TRIPOS>SUBSTRUCTURE
       1 MOL1            1 RESIDUE      1      MOL     
@<SCITEGIC>MOL_PROPERTY
VConf Rank
SciTegic.value.IntegerValue
815

@<SCITEGIC>MOL_PROPERTY
Conf_Id
SciTegic.value.IntegerValue
1

@<SCITEGIC>MOL_PROPERTY
Delta U+W
SciTegic.value.DoubleValue
0.685

@<SCITEGIC>MOL_PROPERTY
U+W
SciTegic.value.DoubleValue
-15.179

@<SCITEGIC>MOL_PROPERTY
Grad RMS
SciTegic.value.DoubleValue
0.000000

@<SCITEGIC>MOL_PROPERTY
U
SciTegic.value.DoubleValue
45.697

@<SCITEGIC>MOL_PROPERTY
W
SciTegic.value.DoubleValue
-60.876

@<SCITEGIC>MOL_PROPERTY
W(PB)
SciTegic.value.DoubleValue
-62.586

@<SCITEGIC>MOL_PROPERTY
W(SA)
SciTegic.value.DoubleValue
1.710

@<SCITEGIC>MOL_PROPERTY
Valence
SciTegic.value.DoubleValue
1.263

@<SCITEGIC>MOL_PROPERTY
Coulomb
SciTegic.value.DoubleValue
44.179

@<SCITEGIC>MOL_PROPERTY
VdW
SciTegic.value.DoubleValue
0.255

@<SCITEGIC>MOL_PROPERTY
VdW6
SciTegic.value.DoubleValue
-3.552

@<SCITEGIC>MOL_PROPERTY
VdW12
SciTegic.value.DoubleValue
3.807

@<SCITEGIC>MOL_PROPERTY
Bond
SciTegic.value.DoubleValue
0.125

@<SCITEGIC>MOL_PROPERTY
Angle
SciTegic.value.DoubleValue
0.616

@<SCITEGIC>MOL_PROPERTY
Pdih
SciTegic.value.DoubleValue
0.521

@<SCITEGIC>MOL_PROPERTY
Idih
SciTegic.value.DoubleValue
0.000

@<SCITEGIC>MOL_PROPERTY
Tether
SciTegic.value.DoubleValue
0.000

@<TRIPOS>MOLECULE
guest-1_confgen4.mol2 : confsearch ligand conformer 816
          17          16           1
SMALL
USER_CHARGES
 
@<TRIPOS>ATOM
       1    N1      18.966428   18.090582   20.135372 N.4        1 MOL1        -0.5891
       2    H1      17.973622   17.966605   20.355242 H          1 MOL1         0.3726
       3    H2      19.483825   17.380078   20.660664 H          1 MOL1         0.3726
       4    H3      19.080834   17.869899   19.140948 H          1 MOL1         0.3726
       5    C1      19.447449   19.491408   20.461200 C.3        1 MOL1         0.0314
       6    H4      18.880849   20.190820   19.840455 H          1 MOL1         0.0999
       7    H5      20.500302   19.563617   20.176431 H          1 MOL1         0.0999
       8    C2      19.282435   19.876938   21.945806 C.3        1 MOL1        -0.1308
       9    H6      19.594234   20.921992   22.074051 H          1 MOL1         0.1025
      10    H7      18.217553   19.840960   22.211285 H          1 MOL1         0.1025
      11    C3      20.086105   18.982255   22.922134 C.3        1 MOL1        -0.1243
      12    H8      19.722192   17.947017   22.872109 H          1 MOL1         0.1025
      13    H9      19.896078   19.320998   23.950262 H          1 MOL1         0.1025
      14    C4      21.608785   19.012242   22.656909 C.3        1 MOL1        -0.2258
      15    H10     22.142582   18.418414   23.410166 H          1 MOL1         0.1036
      16    H11     21.997169   20.037976   22.702684 H          1 MOL1         0.1036
      17    H12     21.855543   18.596239   21.672023 H          1 MOL1         0.1036
@<TRIPOS>BOND
    1     1     2    1
    2     1     3    1
    3     1     4    1
    4     1     5    1
    5     5     6    1
    6     5     7    1
    7     5     8    1
    8     8     9    1
    9     8    10    1
   10     8    11    1
   11    11    12    1
   12    11    13    1
   13    11    14    1
   14    14    15    1
   15    14    16    1
   16    14    17    1
@<TRIPOS>SUBSTRUCTURE
       1 MOL1            1 RESIDUE      1      MOL     
@<SCITEGIC>MOL_PROPERTY
VConf Rank
SciTegic.value.IntegerValue
816

@<SCITEGIC>MOL_PROPERTY
Conf_Id
SciTegic.value.IntegerValue
43

@<SCITEGIC>MOL_PROPERTY
Delta U+W
SciTegic.value.DoubleValue
0.642

@<SCITEGIC>MOL_PROPERTY
U+W
SciTegic.value.DoubleValue
-15.222

@<SCITEGIC>MOL_PROPERTY
Grad RMS
SciTegic.value.DoubleValue
0.000000

@<SCITEGIC>MOL_PROPERTY
U
SciTegic.value.DoubleValue
45.697

@<SCITEGIC>MOL_PROPERTY
W
SciTegic.value.DoubleValue
-60.919

@<SCITEGIC>MOL_PROPERTY
W(PB)
SciTegic.value.DoubleValue
-62.631

@<SCITEGIC>MOL_PROPERTY
W(SA)
SciTegic.value.DoubleValue
1.712

@<SCITEGIC>MOL_PROPERTY
Valence
SciTegic.value.DoubleValue
1.262

@<SCITEGIC>MOL_PROPERTY
Coulomb
SciTegic.value.DoubleValue
44.179

@<SCITEGIC>MOL_PROPERTY
VdW
SciTegic.value.DoubleValue
0.255

@<SCITEGIC>MOL_PROPERTY
VdW6
SciTegic.value.DoubleValue
-3.552

@<SCITEGIC>MOL_PROPERTY
VdW12
SciTegic.value.DoubleValue
3.807

@<SCITEGIC>MOL_PROPERTY
Bond
SciTegic.value.DoubleValue
0.125

@<SCITEGIC>MOL_PROPERTY
Angle
SciTegic.value.DoubleValue
0.616

@<SCITEGIC>MOL_PROPERTY
Pdih
SciTegic.value.DoubleValue
0.521

@<SCITEGIC>MOL_PROPERTY
Idih
SciTegic.value.DoubleValue
0.000

@<SCITEGIC>MOL_PROPERTY
Tether
SciTegic.value.DoubleValue
0.000

@<TRIPOS>MOLECULE
guest-1_confgen4.mol2 : confsearch ligand conformer 817
          17          16           1
SMALL
USER_CHARGES
 
@<TRIPOS>ATOM
       1    N1      19.076417   16.835130   20.675671 N.4        1 MOL1        -0.5891
       2    H1      18.142504   17.162065   20.409935 H          1 MOL1         0.3726
       3    H2      18.980594   16.347121   21.571418 H          1 MOL1         0.3726
       4    H3      19.352151   16.131497   19.983010 H          1 MOL1         0.3726
       5    C1      20.075690   17.972196   20.752439 C.3        1 MOL1         0.0314
       6    H4      20.149211   18.424596   19.759740 H          1 MOL1         0.0999
       7    H5      21.050447   17.548261   21.008668 H          1 MOL1         0.0999
       8    C2      19.692083   19.048388   21.784388 C.3        1 MOL1        -0.1308
       9    H6      18.705924   19.460845   21.532672 H          1 MOL1         0.1025
      10    H7      19.604205   18.587561   22.777316 H          1 MOL1         0.1025
      11    C3      20.734861   20.186809   21.830549 C.3        1 MOL1        -0.1243
      12    H8      20.825693   20.646309   20.836097 H          1 MOL1         0.1025
      13    H9      21.722857   19.774113   22.079291 H          1 MOL1         0.1025
      14    C4      20.356655   21.270219   22.863573 C.3        1 MOL1        -0.2258
      15    H10     21.109273   22.069164   22.880907 H          1 MOL1         0.1036
      16    H11     20.292061   20.847168   23.874544 H          1 MOL1         0.1036
      17    H12     19.387781   21.726203   22.621562 H          1 MOL1         0.1036
@<TRIPOS>BOND
    1     1     2    1
    2     1     3    1
    3     1     4    1
    4     1     5    1
    5     5     6    1
    6     5     7    1
    7     5     8    1
    8     8     9    1
    9     8    10    1
   10     8    11    1
   11    11    12    1
   12    11    13    1
   13    11    14    1
   14    14    15    1
   15    14    16    1
   16    14    17    1
@<TRIPOS>SUBSTRUCTURE
       1 MOL1            1 RESIDUE      1      MOL     
@<SCITEGIC>MOL_PROPERTY
VConf Rank
SciTegic.value.IntegerValue
817

@<SCITEGIC>MOL_PROPERTY
Conf_Id
SciTegic.value.IntegerValue
7

@<SCITEGIC>MOL_PROPERTY
Delta U+W
SciTegic.value.DoubleValue
0.000

@<SCITEGIC>MOL_PROPERTY
U+W
SciTegic.value.DoubleValue
-15.865

@<SCITEGIC>MOL_PROPERTY
Grad RMS
SciTegic.value.DoubleValue
0.000000

@<SCITEGIC>MOL_PROPERTY
U
SciTegic.value.DoubleValue
44.664

@<SCITEGIC>MOL_PROPERTY
W
SciTegic.value.DoubleValue
-60.529

@<SCITEGIC>MOL_PROPERTY
W(PB)
SciTegic.value.DoubleValue
-62.309

@<SCITEGIC>MOL_PROPERTY
W(SA)
SciTegic.value.DoubleValue
1.780

@<SCITEGIC>MOL_PROPERTY
Valence
SciTegic.value.DoubleValue
0.872

@<SCITEGIC>MOL_PROPERTY
Coulomb
SciTegic.value.DoubleValue
43.648

@<SCITEGIC>MOL_PROPERTY
VdW
SciTegic.value.DoubleValue
0.144

@<SCITEGIC>MOL_PROPERTY
VdW6
SciTegic.value.DoubleValue
-2.370

@<SCITEGIC>MOL_PROPERTY
VdW12
SciTegic.value.DoubleValue
2.515

@<SCITEGIC>MOL_PROPERTY
Bond
SciTegic.value.DoubleValue
0.080

@<SCITEGIC>MOL_PROPERTY
Angle
SciTegic.value.DoubleValue
0.376

@<SCITEGIC>MOL_PROPERTY
Pdih
SciTegic.value.DoubleValue
0.416

@<SCITEGIC>MOL_PROPERTY
Idih
SciTegic.value.DoubleValue
0.000

@<SCITEGIC>MOL_PROPERTY
Tether
SciTegic.value.DoubleValue
0.000

@<TRIPOS>MOLECULE
guest-1_confgen4.mol2 : confsearch ligand conformer 818
          17          16           1
SMALL
USER_CHARGES
 
@<TRIPOS>ATOM
       1    N1      19.130085   17.211090   22.899668 N.4        1 MOL1        -0.5891
       2    H1      18.995188   16.417496   22.265902 H          1 MOL1         0.3726
       3    H2      18.200256   17.578123   23.124060 H          1 MOL1         0.3726
       4    H3      19.517309   16.832565   23.770081 H          1 MOL1         0.3726
       5    C1      20.029090   18.272377   22.297326 C.3        1 MOL1         0.0314
       6    H4      21.007659   17.821134   22.112421 H          1 MOL1         0.0999
       7    H5      20.152369   19.067494   23.037211 H          1 MOL1         0.0999
       8    C2      19.475887   18.863497   20.986410 C.3        1 MOL1        -0.1308
       9    H6      19.318043   18.051619   20.264041 H          1 MOL1         0.1025
      10    H7      18.492292   19.315230   21.171793 H          1 MOL1         0.1025
      11    C3      20.420694   19.916499   20.361484 C.3        1 MOL1        -0.1243
      12    H8      20.008263   20.236881   19.394407 H          1 MOL1         0.1025
      13    H9      21.395400   19.457098   20.144503 H          1 MOL1         0.1025
      14    C4      20.620584   21.158180   21.260500 C.3        1 MOL1        -0.2258
      15    H10     19.659682   21.633173   21.497511 H          1 MOL1         0.1036
      16    H11     21.246443   21.903872   20.753301 H          1 MOL1         0.1036
      17    H12     21.116139   20.897447   22.204181 H          1 MOL1         0.1036
@<TRIPOS>BOND
    1     1     2    1
    2     1     3    1
    3     1     4    1
    4     1     5    1
    5     5     6    1
    6     5     7    1
    7     5     8    1
    8     8     9    1
    9     8    10    1
   10     8    11    1
   11    11    12    1
   12    11    13    1
   13    11    14    1
   14    14    15    1
   15    14    16    1
   16    14    17    1
@<TRIPOS>SUBSTRUCTURE
       1 MOL1            1 RESIDUE      1      MOL     
@<SCITEGIC>MOL_PROPERTY
VConf Rank
SciTegic.value.IntegerValue
818

@<SCITEGIC>MOL_PROPERTY
Conf_Id
SciTegic.value.IntegerValue
36

@<SCITEGIC>MOL_PROPERTY
Delta U+W
SciTegic.value.DoubleValue
0.275

@<SCITEGIC>MOL_PROPERTY
U+W
SciTegic.value.DoubleValue
-15.590

@<SCITEGIC>MOL_PROPERTY
Grad RMS
SciTegic.value.DoubleValue
0.000000

@<SCITEGIC>MOL_PROPERTY
U
SciTegic.value.DoubleValue
45.174

@<SCITEGIC>MOL_PROPERTY
W
SciTegic.value.DoubleValue
-60.765

@<SCITEGIC>MOL_PROPERTY
W(PB)
SciTegic.value.DoubleValue
-62.518

@<SCITEGIC>MOL_PROPERTY
W(SA)
SciTegic.value.DoubleValue
1.754

@<SCITEGIC>MOL_PROPERTY
Valence
SciTegic.value.DoubleValue
1.161

@<SCITEGIC>MOL_PROPERTY
Coulomb
SciTegic.value.DoubleValue
43.789

@<SCITEGIC>MOL_PROPERTY
VdW
SciTegic.value.DoubleValue
0.224

@<SCITEGIC>MOL_PROPERTY
VdW6
SciTegic.value.DoubleValue
-2.897

@<SCITEGIC>MOL_PROPERTY
VdW12
SciTegic.value.DoubleValue
3.121

@<SCITEGIC>MOL_PROPERTY
Bond
SciTegic.value.DoubleValue
0.100

@<SCITEGIC>MOL_PROPERTY
Angle
SciTegic.value.DoubleValue
0.500

@<SCITEGIC>MOL_PROPERTY
Pdih
SciTegic.value.DoubleValue
0.561

@<SCITEGIC>MOL_PROPERTY
Idih
SciTegic.value.DoubleValue
0.000

@<SCITEGIC>MOL_PROPERTY
Tether
SciTegic.value.DoubleValue
0.000

@<TRIPOS>MOLECULE
guest-1_confgen4.mol2 : confsearch ligand conformer 819
          17          16           1
SMALL
USER_CHARGES
 
@<TRIPOS>ATOM
       1    N1      19.066792   18.085159   20.229843 N.4        1 MOL1        -0.5891
       2    H1      19.019153   19.098530   20.096970 H          1 MOL1         0.3726
       3    H2      18.164658   17.788961   20.614422 H          1 MOL1         0.3726
       4    H3      19.146937   17.661557   19.299810 H          1 MOL1         0.3726
       5    C1      20.220690   17.689903   21.131132 C.3        1 MOL1         0.0314
       6    H4      21.157030   17.968708   20.640379 H          1 MOL1         0.0999
       7    H5      20.197696   16.600429   21.220877 H          1 MOL1         0.0999
       8    C2      20.165273   18.311883   22.542402 C.3        1 MOL1        -0.1308
       9    H6      19.143874   18.249296   22.940592 H          1 MOL1         0.1025
      10    H7      20.785310   17.693857   23.205308 H          1 MOL1         0.1025
      11    C3      20.687210   19.769179   22.623491 C.3        1 MOL1        -0.1243
      12    H8      21.731078   19.807450   22.281592 H          1 MOL1         0.1025
      13    H9      20.702156   20.073091   23.679617 H          1 MOL1         0.1025
      14    C4      19.846914   20.794105   21.828311 C.3        1 MOL1        -0.2258
      15    H10     19.967377   20.660653   20.746944 H          1 MOL1         0.1036
      16    H11     20.170081   21.816272   22.064732 H          1 MOL1         0.1036
      17    H12     18.780969   20.715683   22.078839 H          1 MOL1         0.1036
@<TRIPOS>BOND
    1     1     2    1
    2     1     3    1
    3     1     4    1
    4     1     5    1
    5     5     6    1
    6     5     7    1
    7     5     8    1
    8     8     9    1
    9     8    10    1
   10     8    11    1
   11    11    12    1
   12    11    13    1
   13    11    14    1
   14    14    15    1
   15    14    16    1
   16    14    17    1
@<TRIPOS>SUBSTRUCTURE
       1 MOL1            1 RESIDUE      1      MOL     
@<SCITEGIC>MOL_PROPERTY
VConf Rank
SciTegic.value.IntegerValue
819

@<SCITEGIC>MOL_PROPERTY
Conf_Id
SciTegic.value.IntegerValue
19

@<SCITEGIC>MOL_PROPERTY
Delta U+W
SciTegic.value.DoubleValue
2.662

@<SCITEGIC>MOL_PROPERTY
U+W
SciTegic.value.DoubleValue
-13.203

@<SCITEGIC>MOL_PROPERTY
Grad RMS
SciTegic.value.DoubleValue
0.000000

@<SCITEGIC>MOL_PROPERTY
U
SciTegic.value.DoubleValue
47.423

@<SCITEGIC>MOL_PROPERTY
W
SciTegic.value.DoubleValue
-60.626

@<SCITEGIC>MOL_PROPERTY
W(PB)
SciTegic.value.DoubleValue
-62.328

@<SCITEGIC>MOL_PROPERTY
W(SA)
SciTegic.value.DoubleValue
1.702

@<SCITEGIC>MOL_PROPERTY
Valence
SciTegic.value.DoubleValue
2.414

@<SCITEGIC>MOL_PROPERTY
Coulomb
SciTegic.value.DoubleValue
44.831

@<SCITEGIC>MOL_PROPERTY
VdW
SciTegic.value.DoubleValue
0.178

@<SCITEGIC>MOL_PROPERTY
VdW6
SciTegic.value.DoubleValue
-3.743

@<SCITEGIC>MOL_PROPERTY
VdW12
SciTegic.value.DoubleValue
3.921

@<SCITEGIC>MOL_PROPERTY
Bond
SciTegic.value.DoubleValue
0.138

@<SCITEGIC>MOL_PROPERTY
Angle
SciTegic.value.DoubleValue
0.941

@<SCITEGIC>MOL_PROPERTY
Pdih
SciTegic.value.DoubleValue
1.335

@<SCITEGIC>MOL_PROPERTY
Idih
SciTegic.value.DoubleValue
0.000

@<SCITEGIC>MOL_PROPERTY
Tether
SciTegic.value.DoubleValue
0.000

@<TRIPOS>MOLECULE
guest-1_confgen4.mol2 : confsearch ligand conformer 820
          17          16           1
SMALL
USER_CHARGES
 
@<TRIPOS>ATOM
       1    N1      20.231012   17.989907   23.078144 N.4        1 MOL1        -0.5891
       2    H1      19.849527   17.334065   23.767465 H          1 MOL1         0.3726
       3    H2      21.163959   18.256755   23.406596 H          1 MOL1         0.3726
       4    H3      20.356270   17.471344   22.205077 H          1 MOL1         0.3726
       5    C1      19.332759   19.197442   22.890945 C.3        1 MOL1         0.0314
       6    H4      19.254384   19.691498   23.863212 H          1 MOL1         0.0999
       7    H5      18.335874   18.849172   22.607699 H          1 MOL1         0.0999
       8    C2      19.845990   20.214644   21.850029 C.3        1 MOL1        -0.1308
       9    H6      19.366091   21.179752   22.060050 H          1 MOL1         0.1025
      10    H7      20.923391   20.378496   21.984522 H          1 MOL1         0.1025
      11    C3      19.537322   19.839281   20.378115 C.3        1 MOL1        -0.1243
      12    H8      19.849244   20.674462   19.735334 H          1 MOL1         0.1025
      13    H9      18.451190   19.740356   20.241912 H          1 MOL1         0.1025
      14    C4      20.237356   18.551927   19.886635 C.3        1 MOL1        -0.2258
      15    H10     21.314740   18.579431   20.095537 H          1 MOL1         0.1036
      16    H11     20.111380   18.440777   18.801771 H          1 MOL1         0.1036
      17    H12     19.808724   17.657536   20.353560 H          1 MOL1         0.1036
@<TRIPOS>BOND
    1     1     2    1
    2     1     3    1
    3     1     4    1
    4     1     5    1
    5     5     6    1
    6     5     7    1
    7     5     8    1
    8     8     9    1
    9     8    10    1
   10     8    11    1
   11    11    12    1
   12    11    13    1
   13    11    14    1
   14    14    15    1
   15    14    16    1
   16    14    17    1
@<TRIPOS>SUBSTRUCTURE
       1 MOL1            1 RESIDUE      1      MOL     
@<SCITEGIC>MOL_PROPERTY
VConf Rank
SciTegic.value.IntegerValue
820

@<SCITEGIC>MOL_PROPERTY
Conf_Id
SciTegic.value.IntegerValue
44

@<SCITEGIC>MOL_PROPERTY
Delta U+W
SciTegic.value.DoubleValue
2.712

@<SCITEGIC>MOL_PROPERTY
U+W
SciTegic.value.DoubleValue
-13.153

@<SCITEGIC>MOL_PROPERTY
Grad RMS
SciTegic.value.DoubleValue
0.000000

@<SCITEGIC>MOL_PROPERTY
U
SciTegic.value.DoubleValue
47.423

@<SCITEGIC>MOL_PROPERTY
W
SciTegic.value.DoubleValue
-60.576

@<SCITEGIC>MOL_PROPERTY
W(PB)
SciTegic.value.DoubleValue
-62.262

@<SCITEGIC>MOL_PROPERTY
W(SA)
SciTegic.value.DoubleValue
1.687

@<SCITEGIC>MOL_PROPERTY
Valence
SciTegic.value.DoubleValue
2.414

@<SCITEGIC>MOL_PROPERTY
Coulomb
SciTegic.value.DoubleValue
44.831

@<SCITEGIC>MOL_PROPERTY
VdW
SciTegic.value.DoubleValue
0.178

@<SCITEGIC>MOL_PROPERTY
VdW6
SciTegic.value.DoubleValue
-3.743

@<SCITEGIC>MOL_PROPERTY
VdW12
SciTegic.value.DoubleValue
3.922

@<SCITEGIC>MOL_PROPERTY
Bond
SciTegic.value.DoubleValue
0.138

@<SCITEGIC>MOL_PROPERTY
Angle
SciTegic.value.DoubleValue
0.941

@<SCITEGIC>MOL_PROPERTY
Pdih
SciTegic.value.DoubleValue
1.335

@<SCITEGIC>MOL_PROPERTY
Idih
SciTegic.value.DoubleValue
0.000

@<SCITEGIC>MOL_PROPERTY
Tether
SciTegic.value.DoubleValue
0.000

@<TRIPOS>MOLECULE
guest-1_confgen4.mol2 : confsearch ligand conformer 821
          17          16           1
SMALL
USER_CHARGES
 
@<TRIPOS>ATOM
       1    N1      19.790763   19.324936   19.637639 N.4        1 MOL1        -0.5891
       2    H1      20.617363   19.834290   19.962814 H          1 MOL1         0.3726
       3    H2      19.077375   20.022333   19.405059 H          1 MOL1         0.3726
       4    H3      20.050609   18.861297   18.761177 H          1 MOL1         0.3726
       5    C1      19.297047   18.334684   20.674704 C.3        1 MOL1         0.0314
       6    H4      20.091756   17.605790   20.853467 H          1 MOL1         0.0999
       7    H5      18.441717   17.804018   20.247689 H          1 MOL1         0.0999
       8    C2      18.879291   18.986635   22.009005 C.3        1 MOL1        -0.1308
       9    H6      18.053584   19.686732   21.825098 H          1 MOL1         0.1025
      10    H7      18.477661   18.207281   22.670145 H          1 MOL1         0.1025
      11    C3      20.029396   19.727677   22.735413 C.3        1 MOL1        -0.1243
      12    H8      19.636269   20.169035   23.661998 H          1 MOL1         0.1025
      13    H9      20.381350   20.569851   22.124246 H          1 MOL1         0.1025
      14    C4      21.219304   18.804559   23.084369 C.3        1 MOL1        -0.2258
      15    H10     20.892606   17.954189   23.696909 H          1 MOL1         0.1036
      16    H11     21.979360   19.354825   23.654011 H          1 MOL1         0.1036
      17    H12     21.703191   18.410630   22.181805 H          1 MOL1         0.1036
@<TRIPOS>BOND
    1     1     2    1
    2     1     3    1
    3     1     4    1
    4     1     5    1
    5     5     6    1
    6     5     7    1
    7     5     8    1
    8     8     9    1
    9     8    10    1
   10     8    11    1
   11    11    12    1
   12    11    13    1
   13    11    14    1
   14    14    15    1
   15    14    16    1
   16    14    17    1
@<TRIPOS>SUBSTRUCTURE
       1 MOL1            1 RESIDUE      1      MOL     
@<SCITEGIC>MOL_PROPERTY
VConf Rank
SciTegic.value.IntegerValue
821

@<SCITEGIC>MOL_PROPERTY
Conf_Id
SciTegic.value.IntegerValue
1

@<SCITEGIC>MOL_PROPERTY
Delta U+W
SciTegic.value.DoubleValue
0.685

@<SCITEGIC>MOL_PROPERTY
U+W
SciTegic.value.DoubleValue
-15.179

@<SCITEGIC>MOL_PROPERTY
Grad RMS
SciTegic.value.DoubleValue
0.000000

@<SCITEGIC>MOL_PROPERTY
U
SciTegic.value.DoubleValue
45.697

@<SCITEGIC>MOL_PROPERTY
W
SciTegic.value.DoubleValue
-60.876

@<SCITEGIC>MOL_PROPERTY
W(PB)
SciTegic.value.DoubleValue
-62.586

@<SCITEGIC>MOL_PROPERTY
W(SA)
SciTegic.value.DoubleValue
1.710

@<SCITEGIC>MOL_PROPERTY
Valence
SciTegic.value.DoubleValue
1.263

@<SCITEGIC>MOL_PROPERTY
Coulomb
SciTegic.value.DoubleValue
44.179

@<SCITEGIC>MOL_PROPERTY
VdW
SciTegic.value.DoubleValue
0.255

@<SCITEGIC>MOL_PROPERTY
VdW6
SciTegic.value.DoubleValue
-3.552

@<SCITEGIC>MOL_PROPERTY
VdW12
SciTegic.value.DoubleValue
3.807

@<SCITEGIC>MOL_PROPERTY
Bond
SciTegic.value.DoubleValue
0.125

@<SCITEGIC>MOL_PROPERTY
Angle
SciTegic.value.DoubleValue
0.616

@<SCITEGIC>MOL_PROPERTY
Pdih
SciTegic.value.DoubleValue
0.521

@<SCITEGIC>MOL_PROPERTY
Idih
SciTegic.value.DoubleValue
0.000

@<SCITEGIC>MOL_PROPERTY
Tether
SciTegic.value.DoubleValue
0.000

@<TRIPOS>MOLECULE
guest-1_confgen4.mol2 : confsearch ligand conformer 822
          17          16           1
SMALL
USER_CHARGES
 
@<TRIPOS>ATOM
       1    N1      20.272937   19.132142   19.646243 N.4        1 MOL1        -0.5891
       2    H1      20.667987   20.039479   19.381568 H          1 MOL1         0.3726
       3    H2      19.266926   19.267581   19.780584 H          1 MOL1         0.3726
       4    H3      20.386033   18.511281   18.838526 H          1 MOL1         0.3726
       5    C1      20.934653   18.567639   20.888550 C.3        1 MOL1         0.0314
       6    H4      21.993227   18.414518   20.661585 H          1 MOL1         0.0999
       7    H5      20.489205   17.591373   21.096604 H          1 MOL1         0.0999
       8    C2      20.804433   19.474119   22.130024 C.3        1 MOL1        -0.1308
       9    H6      21.364412   19.018840   22.957640 H          1 MOL1         0.1025
      10    H7      21.290448   20.437307   21.925557 H          1 MOL1         0.1025
      11    C3      19.342666   19.721072   22.579255 C.3        1 MOL1        -0.1243
      12    H8      18.792627   20.259459   21.795514 H          1 MOL1         0.1025
      13    H9      19.349123   20.384612   23.455370 H          1 MOL1         0.1025
      14    C4      18.592217   18.418886   22.941104 C.3        1 MOL1        -0.2258
      15    H10     17.585484   18.645919   23.315152 H          1 MOL1         0.1036
      16    H11     19.122726   17.862450   23.724690 H          1 MOL1         0.1036
      17    H12     18.480886   17.761363   22.069773 H          1 MOL1         0.1036
@<TRIPOS>BOND
    1     1     2    1
    2     1     3    1
    3     1     4    1
    4     1     5    1
    5     5     6    1
    6     5     7    1
    7     5     8    1
    8     8     9    1
    9     8    10    1
   10     8    11    1
   11    11    12    1
   12    11    13    1
   13    11    14    1
   14    14    15    1
   15    14    16    1
   16    14    17    1
@<TRIPOS>SUBSTRUCTURE
       1 MOL1            1 RESIDUE      1      MOL     
@<SCITEGIC>MOL_PROPERTY
VConf Rank
SciTegic.value.IntegerValue
822

@<SCITEGIC>MOL_PROPERTY
Conf_Id
SciTegic.value.IntegerValue
43

@<SCITEGIC>MOL_PROPERTY
Delta U+W
SciTegic.value.DoubleValue
0.642

@<SCITEGIC>MOL_PROPERTY
U+W
SciTegic.value.DoubleValue
-15.222

@<SCITEGIC>MOL_PROPERTY
Grad RMS
SciTegic.value.DoubleValue
0.000000

@<SCITEGIC>MOL_PROPERTY
U
SciTegic.value.DoubleValue
45.697

@<SCITEGIC>MOL_PROPERTY
W
SciTegic.value.DoubleValue
-60.919

@<SCITEGIC>MOL_PROPERTY
W(PB)
SciTegic.value.DoubleValue
-62.631

@<SCITEGIC>MOL_PROPERTY
W(SA)
SciTegic.value.DoubleValue
1.712

@<SCITEGIC>MOL_PROPERTY
Valence
SciTegic.value.DoubleValue
1.262

@<SCITEGIC>MOL_PROPERTY
Coulomb
SciTegic.value.DoubleValue
44.179

@<SCITEGIC>MOL_PROPERTY
VdW
SciTegic.value.DoubleValue
0.255

@<SCITEGIC>MOL_PROPERTY
VdW6
SciTegic.value.DoubleValue
-3.552

@<SCITEGIC>MOL_PROPERTY
VdW12
SciTegic.value.DoubleValue
3.807

@<SCITEGIC>MOL_PROPERTY
Bond
SciTegic.value.DoubleValue
0.125

@<SCITEGIC>MOL_PROPERTY
Angle
SciTegic.value.DoubleValue
0.616

@<SCITEGIC>MOL_PROPERTY
Pdih
SciTegic.value.DoubleValue
0.521

@<SCITEGIC>MOL_PROPERTY
Idih
SciTegic.value.DoubleValue
0.000

@<SCITEGIC>MOL_PROPERTY
Tether
SciTegic.value.DoubleValue
0.000

@<TRIPOS>MOLECULE
guest-1_confgen4.mol2 : confsearch ligand conformer 823
          17          16           1
SMALL
USER_CHARGES
 
@<TRIPOS>ATOM
       1    N1      17.707913   20.267176   21.880967 N.4        1 MOL1        -0.5891
       2    H1      17.684292   20.717735   20.961111 H          1 MOL1         0.3726
       3    H2      18.019091   20.974063   22.554151 H          1 MOL1         0.3726
       4    H3      16.738973   20.034852   22.121983 H          1 MOL1         0.3726
       5    C1      18.600285   19.042049   21.890551 C.3        1 MOL1         0.0314
       6    H4      18.192986   18.322136   21.175459 H          1 MOL1         0.0999
       7    H5      18.552970   18.597740   22.888487 H          1 MOL1         0.0999
       8    C2      20.064523   19.355175   21.532474 C.3        1 MOL1        -0.1308
       9    H6      20.106597   19.815348   20.536250 H          1 MOL1         0.1025
      10    H7      20.465384   20.089883   22.243463 H          1 MOL1         0.1025
      11    C3      20.938117   18.081635   21.553674 C.3        1 MOL1        -0.1243
      12    H8      20.535412   17.344516   20.844582 H          1 MOL1         0.1025
      13    H9      20.893826   17.618754   22.549720 H          1 MOL1         0.1025
      14    C4      22.408392   18.387985   21.195352 C.3        1 MOL1        -0.2258
      15    H10     23.011747   17.471149   21.215945 H          1 MOL1         0.1036
      16    H11     22.849580   19.096896   21.908096 H          1 MOL1         0.1036
      17    H12     22.488321   18.820552   20.189516 H          1 MOL1         0.1036
@<TRIPOS>BOND
    1     1     2    1
    2     1     3    1
    3     1     4    1
    4     1     5    1
    5     5     6    1
    6     5     7    1
    7     5     8    1
    8     8     9    1
    9     8    10    1
   10     8    11    1
   11    11    12    1
   12    11    13    1
   13    11    14    1
   14    14    15    1
   15    14    16    1
   16    14    17    1
@<TRIPOS>SUBSTRUCTURE
       1 MOL1            1 RESIDUE      1      MOL     
@<SCITEGIC>MOL_PROPERTY
VConf Rank
SciTegic.value.IntegerValue
823

@<SCITEGIC>MOL_PROPERTY
Conf_Id
SciTegic.value.IntegerValue
7

@<SCITEGIC>MOL_PROPERTY
Delta U+W
SciTegic.value.DoubleValue
0.000

@<SCITEGIC>MOL_PROPERTY
U+W
SciTegic.value.DoubleValue
-15.865

@<SCITEGIC>MOL_PROPERTY
Grad RMS
SciTegic.value.DoubleValue
0.000000

@<SCITEGIC>MOL_PROPERTY
U
SciTegic.value.DoubleValue
44.664

@<SCITEGIC>MOL_PROPERTY
W
SciTegic.value.DoubleValue
-60.529

@<SCITEGIC>MOL_PROPERTY
W(PB)
SciTegic.value.DoubleValue
-62.309

@<SCITEGIC>MOL_PROPERTY
W(SA)
SciTegic.value.DoubleValue
1.780

@<SCITEGIC>MOL_PROPERTY
Valence
SciTegic.value.DoubleValue
0.872

@<SCITEGIC>MOL_PROPERTY
Coulomb
SciTegic.value.DoubleValue
43.648

@<SCITEGIC>MOL_PROPERTY
VdW
SciTegic.value.DoubleValue
0.144

@<SCITEGIC>MOL_PROPERTY
VdW6
SciTegic.value.DoubleValue
-2.370

@<SCITEGIC>MOL_PROPERTY
VdW12
SciTegic.value.DoubleValue
2.515

@<SCITEGIC>MOL_PROPERTY
Bond
SciTegic.value.DoubleValue
0.080

@<SCITEGIC>MOL_PROPERTY
Angle
SciTegic.value.DoubleValue
0.376

@<SCITEGIC>MOL_PROPERTY
Pdih
SciTegic.value.DoubleValue
0.416

@<SCITEGIC>MOL_PROPERTY
Idih
SciTegic.value.DoubleValue
0.000

@<SCITEGIC>MOL_PROPERTY
Tether
SciTegic.value.DoubleValue
0.000

@<TRIPOS>MOLECULE
guest-1_confgen4.mol2 : confsearch ligand conformer 824
          17          16           1
SMALL
USER_CHARGES
 
@<TRIPOS>ATOM
       1    N1      21.287483   18.566982   23.544079 N.4        1 MOL1        -0.5891
       2    H1      21.218519   17.561531   23.728363 H          1 MOL1         0.3726
       3    H2      20.719067   19.042068   24.251782 H          1 MOL1         0.3726
       4    H3      22.261765   18.833923   23.718315 H          1 MOL1         0.3726
       5    C1      20.850159   18.917466   22.135794 C.3        1 MOL1         0.0314
       6    H4      21.515233   18.402412   21.437364 H          1 MOL1         0.0999
       7    H5      20.980053   19.994538   22.002069 H          1 MOL1         0.0999
       8    C2      19.388640   18.529549   21.840090 C.3        1 MOL1        -0.1308
       9    H6      19.259382   17.453343   22.016020 H          1 MOL1         0.1025
      10    H7      18.720800   19.045564   22.542662 H          1 MOL1         0.1025
      11    C3      18.966788   18.856397   20.388465 C.3        1 MOL1        -0.1243
      12    H8      17.946564   18.483591   20.220711 H          1 MOL1         0.1025
      13    H9      19.613329   18.314326   19.683961 H          1 MOL1         0.1025
      14    C4      19.008889   20.369249   20.073082 C.3        1 MOL1        -0.2258
      15    H10     18.374827   20.935440   20.767718 H          1 MOL1         0.1036
      16    H11     18.644357   20.560574   19.055478 H          1 MOL1         0.1036
      17    H12     20.029527   20.766820   20.138847 H          1 MOL1         0.1036
@<TRIPOS>BOND
    1     1     2    1
    2     1     3    1
    3     1     4    1
    4     1     5    1
    5     5     6    1
    6     5     7    1
    7     5     8    1
    8     8     9    1
    9     8    10    1
   10     8    11    1
   11    11    12    1
   12    11    13    1
   13    11    14    1
   14    14    15    1
   15    14    16    1
   16    14    17    1
@<TRIPOS>SUBSTRUCTURE
       1 MOL1            1 RESIDUE      1      MOL     
@<SCITEGIC>MOL_PROPERTY
VConf Rank
SciTegic.value.IntegerValue
824

@<SCITEGIC>MOL_PROPERTY
Conf_Id
SciTegic.value.IntegerValue
36

@<SCITEGIC>MOL_PROPERTY
Delta U+W
SciTegic.value.DoubleValue
0.275

@<SCITEGIC>MOL_PROPERTY
U+W
SciTegic.value.DoubleValue
-15.590

@<SCITEGIC>MOL_PROPERTY
Grad RMS
SciTegic.value.DoubleValue
0.000000

@<SCITEGIC>MOL_PROPERTY
U
SciTegic.value.DoubleValue
45.174

@<SCITEGIC>MOL_PROPERTY
W
SciTegic.value.DoubleValue
-60.765

@<SCITEGIC>MOL_PROPERTY
W(PB)
SciTegic.value.DoubleValue
-62.518

@<SCITEGIC>MOL_PROPERTY
W(SA)
SciTegic.value.DoubleValue
1.754

@<SCITEGIC>MOL_PROPERTY
Valence
SciTegic.value.DoubleValue
1.161

@<SCITEGIC>MOL_PROPERTY
Coulomb
SciTegic.value.DoubleValue
43.789

@<SCITEGIC>MOL_PROPERTY
VdW
SciTegic.value.DoubleValue
0.224

@<SCITEGIC>MOL_PROPERTY
VdW6
SciTegic.value.DoubleValue
-2.897

@<SCITEGIC>MOL_PROPERTY
VdW12
SciTegic.value.DoubleValue
3.121

@<SCITEGIC>MOL_PROPERTY
Bond
SciTegic.value.DoubleValue
0.100

@<SCITEGIC>MOL_PROPERTY
Angle
SciTegic.value.DoubleValue
0.500

@<SCITEGIC>MOL_PROPERTY
Pdih
SciTegic.value.DoubleValue
0.561

@<SCITEGIC>MOL_PROPERTY
Idih
SciTegic.value.DoubleValue
0.000

@<SCITEGIC>MOL_PROPERTY
Tether
SciTegic.value.DoubleValue
0.000

@<TRIPOS>MOLECULE
guest-1_confgen4.mol2 : confsearch ligand conformer 825
          17          16           1
SMALL
USER_CHARGES
 
@<TRIPOS>ATOM
       1    N1      20.824849   20.611696   21.426064 N.4        1 MOL1        -0.5891
       2    H1      20.943309   20.031851   20.591444 H          1 MOL1         0.3726
       3    H2      21.684312   20.526021   21.976940 H          1 MOL1         0.3726
       4    H3      20.768896   21.585929   21.112118 H          1 MOL1         0.3726
       5    C1      19.601074   20.204991   22.224183 C.3        1 MOL1         0.0314
       6    H4      18.712203   20.381106   21.612470 H          1 MOL1         0.0999
       7    H5      19.550559   20.867954   23.092207 H          1 MOL1         0.0999
       8    C2      19.618701   18.740470   22.710475 C.3        1 MOL1        -0.1308
       9    H6      20.610975   18.488456   23.107478 H          1 MOL1         0.1025
      10    H7      18.925882   18.660923   23.558720 H          1 MOL1         0.1025
      11    C3      19.185856   17.703441   21.642804 C.3        1 MOL1        -0.1243
      12    H8      18.166600   17.929892   21.299497 H          1 MOL1         0.1025
      13    H9      19.132660   16.715545   22.121575 H          1 MOL1         0.1025
      14    C4      20.130964   17.609127   20.423477 C.3        1 MOL1        -0.2258
      15    H10     20.061318   18.501379   19.790460 H          1 MOL1         0.1036
      16    H11     19.860377   16.748475   19.798003 H          1 MOL1         0.1036
      17    H12     21.174662   17.477460   20.737345 H          1 MOL1         0.1036
@<TRIPOS>BOND
    1     1     2    1
    2     1     3    1
    3     1     4    1
    4     1     5    1
    5     5     6    1
    6     5     7    1
    7     5     8    1
    8     8     9    1
    9     8    10    1
   10     8    11    1
   11    11    12    1
   12    11    13    1
   13    11    14    1
   14    14    15    1
   15    14    16    1
   16    14    17    1
@<TRIPOS>SUBSTRUCTURE
       1 MOL1            1 RESIDUE      1      MOL     
@<SCITEGIC>MOL_PROPERTY
VConf Rank
SciTegic.value.IntegerValue
825

@<SCITEGIC>MOL_PROPERTY
Conf_Id
SciTegic.value.IntegerValue
19

@<SCITEGIC>MOL_PROPERTY
Delta U+W
SciTegic.value.DoubleValue
2.662

@<SCITEGIC>MOL_PROPERTY
U+W
SciTegic.value.DoubleValue
-13.203

@<SCITEGIC>MOL_PROPERTY
Grad RMS
SciTegic.value.DoubleValue
0.000000

@<SCITEGIC>MOL_PROPERTY
U
SciTegic.value.DoubleValue
47.423

@<SCITEGIC>MOL_PROPERTY
W
SciTegic.value.DoubleValue
-60.626

@<SCITEGIC>MOL_PROPERTY
W(PB)
SciTegic.value.DoubleValue
-62.328

@<SCITEGIC>MOL_PROPERTY
W(SA)
SciTegic.value.DoubleValue
1.702

@<SCITEGIC>MOL_PROPERTY
Valence
SciTegic.value.DoubleValue
2.414

@<SCITEGIC>MOL_PROPERTY
Coulomb
SciTegic.value.DoubleValue
44.831

@<SCITEGIC>MOL_PROPERTY
VdW
SciTegic.value.DoubleValue
0.178

@<SCITEGIC>MOL_PROPERTY
VdW6
SciTegic.value.DoubleValue
-3.743

@<SCITEGIC>MOL_PROPERTY
VdW12
SciTegic.value.DoubleValue
3.921

@<SCITEGIC>MOL_PROPERTY
Bond
SciTegic.value.DoubleValue
0.138

@<SCITEGIC>MOL_PROPERTY
Angle
SciTegic.value.DoubleValue
0.941

@<SCITEGIC>MOL_PROPERTY
Pdih
SciTegic.value.DoubleValue
1.335

@<SCITEGIC>MOL_PROPERTY
Idih
SciTegic.value.DoubleValue
0.000

@<SCITEGIC>MOL_PROPERTY
Tether
SciTegic.value.DoubleValue
0.000

@<TRIPOS>MOLECULE
guest-1_confgen4.mol2 : confsearch ligand conformer 826
          17          16           1
SMALL
USER_CHARGES
 
@<TRIPOS>ATOM
       1    N1      21.709999   18.742856   21.681456 N.4        1 MOL1        -0.5891
       2    H1      22.553790   18.752475   22.263477 H          1 MOL1         0.3726
       3    H2      22.018719   18.617013   20.712779 H          1 MOL1         0.3726
       4    H3      21.175853   17.908709   21.937836 H          1 MOL1         0.3726
       5    C1      20.892300   20.008636   21.852362 C.3        1 MOL1         0.0314
       6    H4      21.531988   20.844866   21.557310 H          1 MOL1         0.0999
       7    H5      20.650064   20.126159   22.911990 H          1 MOL1         0.0999
       8    C2      19.597577   20.045649   21.013354 C.3        1 MOL1        -0.1308
       9    H6      19.297776   21.096613   20.906396 H          1 MOL1         0.1025
      10    H7      19.798864   19.684900   19.995969 H          1 MOL1         0.1025
      11    C3      18.406962   19.271309   21.634271 C.3        1 MOL1        -0.1243
      12    H8      17.516926   19.450440   21.014804 H          1 MOL1         0.1025
      13    H9      18.174750   19.683910   22.626167 H          1 MOL1         0.1025
      14    C4      18.627310   17.745860   21.749740 C.3        1 MOL1        -0.2258
      15    H10     18.953952   17.316764   20.793532 H          1 MOL1         0.1036
      16    H11     17.692367   17.246985   22.036378 H          1 MOL1         0.1036
      17    H12     19.370015   17.503701   22.518784 H          1 MOL1         0.1036
@<TRIPOS>BOND
    1     1     2    1
    2     1     3    1
    3     1     4    1
    4     1     5    1
    5     5     6    1
    6     5     7    1
    7     5     8    1
    8     8     9    1
    9     8    10    1
   10     8    11    1
   11    11    12    1
   12    11    13    1
   13    11    14    1
   14    14    15    1
   15    14    16    1
   16    14    17    1
@<TRIPOS>SUBSTRUCTURE
       1 MOL1            1 RESIDUE      1      MOL     
@<SCITEGIC>MOL_PROPERTY
VConf Rank
SciTegic.value.IntegerValue
826

@<SCITEGIC>MOL_PROPERTY
Conf_Id
SciTegic.value.IntegerValue
44

@<SCITEGIC>MOL_PROPERTY
Delta U+W
SciTegic.value.DoubleValue
2.712

@<SCITEGIC>MOL_PROPERTY
U+W
SciTegic.value.DoubleValue
-13.153

@<SCITEGIC>MOL_PROPERTY
Grad RMS
SciTegic.value.DoubleValue
0.000000

@<SCITEGIC>MOL_PROPERTY
U
SciTegic.value.DoubleValue
47.423

@<SCITEGIC>MOL_PROPERTY
W
SciTegic.value.DoubleValue
-60.576

@<SCITEGIC>MOL_PROPERTY
W(PB)
SciTegic.value.DoubleValue
-62.262

@<SCITEGIC>MOL_PROPERTY
W(SA)
SciTegic.value.DoubleValue
1.687

@<SCITEGIC>MOL_PROPERTY
Valence
SciTegic.value.DoubleValue
2.414

@<SCITEGIC>MOL_PROPERTY
Coulomb
SciTegic.value.DoubleValue
44.831

@<SCITEGIC>MOL_PROPERTY
VdW
SciTegic.value.DoubleValue
0.178

@<SCITEGIC>MOL_PROPERTY
VdW6
SciTegic.value.DoubleValue
-3.743

@<SCITEGIC>MOL_PROPERTY
VdW12
SciTegic.value.DoubleValue
3.922

@<SCITEGIC>MOL_PROPERTY
Bond
SciTegic.value.DoubleValue
0.138

@<SCITEGIC>MOL_PROPERTY
Angle
SciTegic.value.DoubleValue
0.941

@<SCITEGIC>MOL_PROPERTY
Pdih
SciTegic.value.DoubleValue
1.335

@<SCITEGIC>MOL_PROPERTY
Idih
SciTegic.value.DoubleValue
0.000

@<SCITEGIC>MOL_PROPERTY
Tether
SciTegic.value.DoubleValue
0.000

@<TRIPOS>MOLECULE
guest-1_confgen4.mol2 : confsearch ligand conformer 827
          17          16           1
SMALL
USER_CHARGES
 
@<TRIPOS>ATOM
       1    N1      20.573737   20.895338   21.863486 N.4        1 MOL1        -0.5891
       2    H1      20.910228   20.585016   20.947560 H          1 MOL1         0.3726
       3    H2      21.383550   20.922806   22.490245 H          1 MOL1         0.3726
       4    H3      20.250838   21.861753   21.751925 H          1 MOL1         0.3726
       5    C1      19.477448   19.992171   22.394804 C.3        1 MOL1         0.0314
       6    H4      18.636898   20.032035   21.697172 H          1 MOL1         0.0999
       7    H5      19.142370   20.402509   23.351299 H          1 MOL1         0.0999
       8    C2      19.919163   18.527553   22.594055 C.3        1 MOL1        -0.1308
       9    H6      20.736342   18.494074   23.326753 H          1 MOL1         0.1025
      10    H7      19.086424   17.967009   23.039186 H          1 MOL1         0.1025
      11    C3      20.368576   17.822125   21.290232 C.3        1 MOL1        -0.1243
      12    H8      20.676759   16.795194   21.531769 H          1 MOL1         0.1025
      13    H9      21.259460   18.317393   20.880732 H          1 MOL1         0.1025
      14    C4      19.259209   17.773637   20.214707 C.3        1 MOL1        -0.2258
      15    H10     18.357005   17.281307   20.600330 H          1 MOL1         0.1036
      16    H11     19.598808   17.209468   19.336439 H          1 MOL1         0.1036
      17    H12     18.981830   18.779375   19.874855 H          1 MOL1         0.1036
@<TRIPOS>BOND
    1     1     2    1
    2     1     3    1
    3     1     4    1
    4     1     5    1
    5     5     6    1
    6     5     7    1
    7     5     8    1
    8     8     9    1
    9     8    10    1
   10     8    11    1
   11    11    12    1
   12    11    13    1
   13    11    14    1
   14    14    15    1
   15    14    16    1
   16    14    17    1
@<TRIPOS>SUBSTRUCTURE
       1 MOL1            1 RESIDUE      1      MOL     
@<SCITEGIC>MOL_PROPERTY
VConf Rank
SciTegic.value.IntegerValue
827

@<SCITEGIC>MOL_PROPERTY
Conf_Id
SciTegic.value.IntegerValue
1

@<SCITEGIC>MOL_PROPERTY
Delta U+W
SciTegic.value.DoubleValue
0.685

@<SCITEGIC>MOL_PROPERTY
U+W
SciTegic.value.DoubleValue
-15.179

@<SCITEGIC>MOL_PROPERTY
Grad RMS
SciTegic.value.DoubleValue
0.000000

@<SCITEGIC>MOL_PROPERTY
U
SciTegic.value.DoubleValue
45.697

@<SCITEGIC>MOL_PROPERTY
W
SciTegic.value.DoubleValue
-60.876

@<SCITEGIC>MOL_PROPERTY
W(PB)
SciTegic.value.DoubleValue
-62.586

@<SCITEGIC>MOL_PROPERTY
W(SA)
SciTegic.value.DoubleValue
1.710

@<SCITEGIC>MOL_PROPERTY
Valence
SciTegic.value.DoubleValue
1.263

@<SCITEGIC>MOL_PROPERTY
Coulomb
SciTegic.value.DoubleValue
44.179

@<SCITEGIC>MOL_PROPERTY
VdW
SciTegic.value.DoubleValue
0.255

@<SCITEGIC>MOL_PROPERTY
VdW6
SciTegic.value.DoubleValue
-3.552

@<SCITEGIC>MOL_PROPERTY
VdW12
SciTegic.value.DoubleValue
3.807

@<SCITEGIC>MOL_PROPERTY
Bond
SciTegic.value.DoubleValue
0.125

@<SCITEGIC>MOL_PROPERTY
Angle
SciTegic.value.DoubleValue
0.616

@<SCITEGIC>MOL_PROPERTY
Pdih
SciTegic.value.DoubleValue
0.521

@<SCITEGIC>MOL_PROPERTY
Idih
SciTegic.value.DoubleValue
0.000

@<SCITEGIC>MOL_PROPERTY
Tether
SciTegic.value.DoubleValue
0.000

@<TRIPOS>MOLECULE
guest-1_confgen4.mol2 : confsearch ligand conformer 828
          17          16           1
SMALL
USER_CHARGES
 
@<TRIPOS>ATOM
       1    N1      20.388524   17.710239   20.188714 N.4        1 MOL1        -0.5891
       2    H1      19.845728   16.847223   20.288481 H          1 MOL1         0.3726
       3    H2      21.136911   17.679560   20.886871 H          1 MOL1         0.3726
       4    H3      20.836939   17.674990   19.267655 H          1 MOL1         0.3726
       5    C1      19.522391   18.944934   20.347453 C.3        1 MOL1         0.0314
       6    H4      18.773312   18.930815   19.551073 H          1 MOL1         0.0999
       7    H5      20.154763   19.824357   20.200739 H          1 MOL1         0.0999
       8    C2      18.812980   19.036451   21.714304 C.3        1 MOL1        -0.1308
       9    H6      18.162901   19.921438   21.714068 H          1 MOL1         0.1025
      10    H7      18.149433   18.169872   21.834697 H          1 MOL1         0.1025
      11    C3      19.779914   19.115172   22.921946 C.3        1 MOL1        -0.1243
      12    H8      20.374828   18.194247   22.989976 H          1 MOL1         0.1025
      13    H9      19.187861   19.162567   23.846680 H          1 MOL1         0.1025
      14    C4      20.721266   20.340087   22.865062 C.3        1 MOL1        -0.2258
      15    H10     21.341128   20.391644   23.769541 H          1 MOL1         0.1036
      16    H11     20.149209   21.274585   22.797736 H          1 MOL1         0.1036
      17    H12     21.397899   20.289858   22.002744 H          1 MOL1         0.1036
@<TRIPOS>BOND
    1     1     2    1
    2     1     3    1
    3     1     4    1
    4     1     5    1
    5     5     6    1
    6     5     7    1
    7     5     8    1
    8     8     9    1
    9     8    10    1
   10     8    11    1
   11    11    12    1
   12    11    13    1
   13    11    14    1
   14    14    15    1
   15    14    16    1
   16    14    17    1
@<TRIPOS>SUBSTRUCTURE
       1 MOL1            1 RESIDUE      1      MOL     
@<SCITEGIC>MOL_PROPERTY
VConf Rank
SciTegic.value.IntegerValue
828

@<SCITEGIC>MOL_PROPERTY
Conf_Id
SciTegic.value.IntegerValue
43

@<SCITEGIC>MOL_PROPERTY
Delta U+W
SciTegic.value.DoubleValue
0.642

@<SCITEGIC>MOL_PROPERTY
U+W
SciTegic.value.DoubleValue
-15.222

@<SCITEGIC>MOL_PROPERTY
Grad RMS
SciTegic.value.DoubleValue
0.000000

@<SCITEGIC>MOL_PROPERTY
U
SciTegic.value.DoubleValue
45.697

@<SCITEGIC>MOL_PROPERTY
W
SciTegic.value.DoubleValue
-60.919

@<SCITEGIC>MOL_PROPERTY
W(PB)
SciTegic.value.DoubleValue
-62.631

@<SCITEGIC>MOL_PROPERTY
W(SA)
SciTegic.value.DoubleValue
1.712

@<SCITEGIC>MOL_PROPERTY
Valence
SciTegic.value.DoubleValue
1.262

@<SCITEGIC>MOL_PROPERTY
Coulomb
SciTegic.value.DoubleValue
44.179

@<SCITEGIC>MOL_PROPERTY
VdW
SciTegic.value.DoubleValue
0.255

@<SCITEGIC>MOL_PROPERTY
VdW6
SciTegic.value.DoubleValue
-3.552

@<SCITEGIC>MOL_PROPERTY
VdW12
SciTegic.value.DoubleValue
3.807

@<SCITEGIC>MOL_PROPERTY
Bond
SciTegic.value.DoubleValue
0.125

@<SCITEGIC>MOL_PROPERTY
Angle
SciTegic.value.DoubleValue
0.616

@<SCITEGIC>MOL_PROPERTY
Pdih
SciTegic.value.DoubleValue
0.521

@<SCITEGIC>MOL_PROPERTY
Idih
SciTegic.value.DoubleValue
0.000

@<SCITEGIC>MOL_PROPERTY
Tether
SciTegic.value.DoubleValue
0.000

@<TRIPOS>MOLECULE
guest-1_confgen4.mol2 : confsearch ligand conformer 829
          17          16           1
SMALL
USER_CHARGES
 
@<TRIPOS>ATOM
       1    N1      17.635718   18.608499   20.603619 N.4        1 MOL1        -0.5891
       2    H1      17.135099   19.361975   21.084608 H          1 MOL1         0.3726
       3    H2      17.438172   17.742455   21.114149 H          1 MOL1         0.3726
       4    H3      17.206144   18.511226   19.677924 H          1 MOL1         0.3726
       5    C1      19.122935   18.885078   20.508494 C.3        1 MOL1         0.0314
       6    H4      19.259411   19.801573   19.928034 H          1 MOL1         0.0999
       7    H5      19.585312   18.060082   19.959757 H          1 MOL1         0.0999
       8    C2      19.800894   19.036976   21.882379 C.3        1 MOL1        -0.1308
       9    H6      19.323740   19.856196   22.436630 H          1 MOL1         0.1025
      10    H7      19.648650   18.120653   22.468181 H          1 MOL1         0.1025
      11    C3      21.313072   19.317491   21.740427 C.3        1 MOL1        -0.1243
      12    H8      21.466181   20.232812   21.151300 H          1 MOL1         0.1025
      13    H9      21.790709   18.499363   21.182883 H          1 MOL1         0.1025
      14    C4      21.999934   19.471127   23.114680 C.3        1 MOL1        -0.2258
      15    H10     23.072583   19.669749   22.992118 H          1 MOL1         0.1036
      16    H11     21.893498   18.557646   23.714206 H          1 MOL1         0.1036
      17    H12     21.566358   20.304746   23.682394 H          1 MOL1         0.1036
@<TRIPOS>BOND
    1     1     2    1
    2     1     3    1
    3     1     4    1
    4     1     5    1
    5     5     6    1
    6     5     7    1
    7     5     8    1
    8     8     9    1
    9     8    10    1
   10     8    11    1
   11    11    12    1
   12    11    13    1
   13    11    14    1
   14    14    15    1
   15    14    16    1
   16    14    17    1
@<TRIPOS>SUBSTRUCTURE
       1 MOL1            1 RESIDUE      1      MOL     
@<SCITEGIC>MOL_PROPERTY
VConf Rank
SciTegic.value.IntegerValue
829

@<SCITEGIC>MOL_PROPERTY
Conf_Id
SciTegic.value.IntegerValue
7

@<SCITEGIC>MOL_PROPERTY
Delta U+W
SciTegic.value.DoubleValue
0.000

@<SCITEGIC>MOL_PROPERTY
U+W
SciTegic.value.DoubleValue
-15.865

@<SCITEGIC>MOL_PROPERTY
Grad RMS
SciTegic.value.DoubleValue
0.000000

@<SCITEGIC>MOL_PROPERTY
U
SciTegic.value.DoubleValue
44.664

@<SCITEGIC>MOL_PROPERTY
W
SciTegic.value.DoubleValue
-60.529

@<SCITEGIC>MOL_PROPERTY
W(PB)
SciTegic.value.DoubleValue
-62.309

@<SCITEGIC>MOL_PROPERTY
W(SA)
SciTegic.value.DoubleValue
1.780

@<SCITEGIC>MOL_PROPERTY
Valence
SciTegic.value.DoubleValue
0.872

@<SCITEGIC>MOL_PROPERTY
Coulomb
SciTegic.value.DoubleValue
43.648

@<SCITEGIC>MOL_PROPERTY
VdW
SciTegic.value.DoubleValue
0.144

@<SCITEGIC>MOL_PROPERTY
VdW6
SciTegic.value.DoubleValue
-2.370

@<SCITEGIC>MOL_PROPERTY
VdW12
SciTegic.value.DoubleValue
2.515

@<SCITEGIC>MOL_PROPERTY
Bond
SciTegic.value.DoubleValue
0.080

@<SCITEGIC>MOL_PROPERTY
Angle
SciTegic.value.DoubleValue
0.376

@<SCITEGIC>MOL_PROPERTY
Pdih
SciTegic.value.DoubleValue
0.416

@<SCITEGIC>MOL_PROPERTY
Idih
SciTegic.value.DoubleValue
0.000

@<SCITEGIC>MOL_PROPERTY
Tether
SciTegic.value.DoubleValue
0.000

@<TRIPOS>MOLECULE
guest-1_confgen4.mol2 : confsearch ligand conformer 830
          17          16           1
SMALL
USER_CHARGES
 
@<TRIPOS>ATOM
       1    N1      21.772146   19.798101   20.228874 N.4        1 MOL1        -0.5891
       2    H1      21.872297   20.814889   20.304770 H          1 MOL1         0.3726
       3    H2      21.342098   19.605392   19.319166 H          1 MOL1         0.3726
       4    H3      22.719864   19.408653   20.197166 H          1 MOL1         0.3726
       5    C1      20.963183   19.220226   21.372988 C.3        1 MOL1         0.0314
       6    H4      21.493295   19.436095   22.304541 H          1 MOL1         0.0999
       7    H5      20.925429   18.135514   21.243319 H          1 MOL1         0.0999
       8    C2      19.531568   19.784641   21.449617 C.3        1 MOL1        -0.1308
       9    H6      19.580203   20.878006   21.539422 H          1 MOL1         0.1025
      10    H7      18.999699   19.569286   20.513334 H          1 MOL1         0.1025
      11    C3      18.729685   19.216785   22.643990 C.3        1 MOL1        -0.1243
      12    H8      17.752135   19.717241   22.687823 H          1 MOL1         0.1025
      13    H9      19.243735   19.460440   23.584505 H          1 MOL1         0.1025
      14    C4      18.510320   17.689194   22.552874 C.3        1 MOL1        -0.2258
      15    H10     18.002940   17.417982   21.617922 H          1 MOL1         0.1036
      16    H11     17.886566   17.339562   23.385758 H          1 MOL1         0.1036
      17    H12     19.460219   17.141765   22.598730 H          1 MOL1         0.1036
@<TRIPOS>BOND
    1     1     2    1
    2     1     3    1
    3     1     4    1
    4     1     5    1
    5     5     6    1
    6     5     7    1
    7     5     8    1
    8     8     9    1
    9     8    10    1
   10     8    11    1
   11    11    12    1
   12    11    13    1
   13    11    14    1
   14    14    15    1
   15    14    16    1
   16    14    17    1
@<TRIPOS>SUBSTRUCTURE
       1 MOL1            1 RESIDUE      1      MOL     
@<SCITEGIC>MOL_PROPERTY
VConf Rank
SciTegic.value.IntegerValue
830

@<SCITEGIC>MOL_PROPERTY
Conf_Id
SciTegic.value.IntegerValue
36

@<SCITEGIC>MOL_PROPERTY
Delta U+W
SciTegic.value.DoubleValue
0.275

@<SCITEGIC>MOL_PROPERTY
U+W
SciTegic.value.DoubleValue
-15.590

@<SCITEGIC>MOL_PROPERTY
Grad RMS
SciTegic.value.DoubleValue
0.000000

@<SCITEGIC>MOL_PROPERTY
U
SciTegic.value.DoubleValue
45.174

@<SCITEGIC>MOL_PROPERTY
W
SciTegic.value.DoubleValue
-60.765

@<SCITEGIC>MOL_PROPERTY
W(PB)
SciTegic.value.DoubleValue
-62.518

@<SCITEGIC>MOL_PROPERTY
W(SA)
SciTegic.value.DoubleValue
1.754

@<SCITEGIC>MOL_PROPERTY
Valence
SciTegic.value.DoubleValue
1.161

@<SCITEGIC>MOL_PROPERTY
Coulomb
SciTegic.value.DoubleValue
43.789

@<SCITEGIC>MOL_PROPERTY
VdW
SciTegic.value.DoubleValue
0.224

@<SCITEGIC>MOL_PROPERTY
VdW6
SciTegic.value.DoubleValue
-2.897

@<SCITEGIC>MOL_PROPERTY
VdW12
SciTegic.value.DoubleValue
3.121

@<SCITEGIC>MOL_PROPERTY
Bond
SciTegic.value.DoubleValue
0.100

@<SCITEGIC>MOL_PROPERTY
Angle
SciTegic.value.DoubleValue
0.500

@<SCITEGIC>MOL_PROPERTY
Pdih
SciTegic.value.DoubleValue
0.561

@<SCITEGIC>MOL_PROPERTY
Idih
SciTegic.value.DoubleValue
0.000

@<SCITEGIC>MOL_PROPERTY
Tether
SciTegic.value.DoubleValue
0.000

@<TRIPOS>MOLECULE
guest-1_confgen4.mol2 : confsearch ligand conformer 831
          17          16           1
SMALL
USER_CHARGES
 
@<TRIPOS>ATOM
       1    N1      19.540510   18.784752   19.797132 N.4        1 MOL1        -0.5891
       2    H1      18.705063   19.023960   20.337180 H          1 MOL1         0.3726
       3    H2      19.509668   17.775222   19.625736 H          1 MOL1         0.3726
       4    H3      19.452742   19.243947   18.884849 H          1 MOL1         0.3726
       5    C1      20.811251   19.195764   20.515683 C.3        1 MOL1         0.0314
       6    H4      20.821155   20.284954   20.609868 H          1 MOL1         0.0999
       7    H5      21.648821   18.904378   19.876068 H          1 MOL1         0.0999
       8    C2      20.991518   18.549641   21.905518 C.3        1 MOL1        -0.1308
       9    H6      20.737164   17.482445   21.859427 H          1 MOL1         0.1025
      10    H7      22.058910   18.594110   22.159575 H          1 MOL1         0.1025
      11    C3      20.201328   19.243539   23.044294 C.3        1 MOL1        -0.1243
      12    H8      20.511035   20.295279   23.121402 H          1 MOL1         0.1025
      13    H9      20.482771   18.773380   23.997042 H          1 MOL1         0.1025
      14    C4      18.664911   19.168805   22.893567 C.3        1 MOL1        -0.2258
      15    H10     18.310216   19.799840   22.070365 H          1 MOL1         0.1036
      16    H11     18.174975   19.527101   23.808303 H          1 MOL1         0.1036
      17    H12     18.331162   18.137601   22.719255 H          1 MOL1         0.1036
@<TRIPOS>BOND
    1     1     2    1
    2     1     3    1
    3     1     4    1
    4     1     5    1
    5     5     6    1
    6     5     7    1
    7     5     8    1
    8     8     9    1
    9     8    10    1
   10     8    11    1
   11    11    12    1
   12    11    13    1
   13    11    14    1
   14    14    15    1
   15    14    16    1
   16    14    17    1
@<TRIPOS>SUBSTRUCTURE
       1 MOL1            1 RESIDUE      1      MOL     
@<SCITEGIC>MOL_PROPERTY
VConf Rank
SciTegic.value.IntegerValue
831

@<SCITEGIC>MOL_PROPERTY
Conf_Id
SciTegic.value.IntegerValue
19

@<SCITEGIC>MOL_PROPERTY
Delta U+W
SciTegic.value.DoubleValue
2.662

@<SCITEGIC>MOL_PROPERTY
U+W
SciTegic.value.DoubleValue
-13.203

@<SCITEGIC>MOL_PROPERTY
Grad RMS
SciTegic.value.DoubleValue
0.000000

@<SCITEGIC>MOL_PROPERTY
U
SciTegic.value.DoubleValue
47.423

@<SCITEGIC>MOL_PROPERTY
W
SciTegic.value.DoubleValue
-60.626

@<SCITEGIC>MOL_PROPERTY
W(PB)
SciTegic.value.DoubleValue
-62.328

@<SCITEGIC>MOL_PROPERTY
W(SA)
SciTegic.value.DoubleValue
1.702

@<SCITEGIC>MOL_PROPERTY
Valence
SciTegic.value.DoubleValue
2.414

@<SCITEGIC>MOL_PROPERTY
Coulomb
SciTegic.value.DoubleValue
44.831

@<SCITEGIC>MOL_PROPERTY
VdW
SciTegic.value.DoubleValue
0.178

@<SCITEGIC>MOL_PROPERTY
VdW6
SciTegic.value.DoubleValue
-3.743

@<SCITEGIC>MOL_PROPERTY
VdW12
SciTegic.value.DoubleValue
3.921

@<SCITEGIC>MOL_PROPERTY
Bond
SciTegic.value.DoubleValue
0.138

@<SCITEGIC>MOL_PROPERTY
Angle
SciTegic.value.DoubleValue
0.941

@<SCITEGIC>MOL_PROPERTY
Pdih
SciTegic.value.DoubleValue
1.335

@<SCITEGIC>MOL_PROPERTY
Idih
SciTegic.value.DoubleValue
0.000

@<SCITEGIC>MOL_PROPERTY
Tether
SciTegic.value.DoubleValue
0.000

@<TRIPOS>MOLECULE
guest-1_confgen4.mol2 : confsearch ligand conformer 832
          17          16           1
SMALL
USER_CHARGES
 
@<TRIPOS>ATOM
       1    N1      18.773931   17.610427   21.953433 N.4        1 MOL1        -0.5891
       2    H1      18.009839   17.016649   21.615182 H          1 MOL1         0.3726
       3    H2      18.907758   17.386674   22.944143 H          1 MOL1         0.3726
       4    H3      19.622764   17.319403   21.461873 H          1 MOL1         0.3726
       5    C1      18.479395   19.083204   21.743153 C.3        1 MOL1         0.0314
       6    H4      17.565468   19.309127   22.299239 H          1 MOL1         0.0999
       7    H5      18.278714   19.249940   20.681444 H          1 MOL1         0.0999
       8    C2      19.603060   20.028890   22.217143 C.3        1 MOL1        -0.1308
       9    H6      19.160176   21.020668   22.378624 H          1 MOL1         0.1025
      10    H7      19.979259   19.704059   23.196270 H          1 MOL1         0.1025
      11    C3      20.774860   20.187731   21.214966 C.3        1 MOL1        -0.1243
      12    H8      21.459127   20.956010   21.601639 H          1 MOL1         0.1025
      13    H9      20.393830   20.573678   20.258995 H          1 MOL1         0.1025
      14    C4      21.580425   18.892903   20.963240 C.3        1 MOL1        -0.2258
      15    H10     21.895589   18.429615   21.907268 H          1 MOL1         0.1036
      16    H11     22.485473   19.114623   20.382823 H          1 MOL1         0.1036
      17    H12     20.999545   18.163246   20.387168 H          1 MOL1         0.1036
@<TRIPOS>BOND
    1     1     2    1
    2     1     3    1
    3     1     4    1
    4     1     5    1
    5     5     6    1
    6     5     7    1
    7     5     8    1
    8     8     9    1
    9     8    10    1
   10     8    11    1
   11    11    12    1
   12    11    13    1
   13    11    14    1
   14    14    15    1
   15    14    16    1
   16    14    17    1
@<TRIPOS>SUBSTRUCTURE
       1 MOL1            1 RESIDUE      1      MOL     
@<SCITEGIC>MOL_PROPERTY
VConf Rank
SciTegic.value.IntegerValue
832

@<SCITEGIC>MOL_PROPERTY
Conf_Id
SciTegic.value.IntegerValue
44

@<SCITEGIC>MOL_PROPERTY
Delta U+W
SciTegic.value.DoubleValue
2.712

@<SCITEGIC>MOL_PROPERTY
U+W
SciTegic.value.DoubleValue
-13.153

@<SCITEGIC>MOL_PROPERTY
Grad RMS
SciTegic.value.DoubleValue
0.000000

@<SCITEGIC>MOL_PROPERTY
U
SciTegic.value.DoubleValue
47.423

@<SCITEGIC>MOL_PROPERTY
W
SciTegic.value.DoubleValue
-60.576

@<SCITEGIC>MOL_PROPERTY
W(PB)
SciTegic.value.DoubleValue
-62.262

@<SCITEGIC>MOL_PROPERTY
W(SA)
SciTegic.value.DoubleValue
1.687

@<SCITEGIC>MOL_PROPERTY
Valence
SciTegic.value.DoubleValue
2.414

@<SCITEGIC>MOL_PROPERTY
Coulomb
SciTegic.value.DoubleValue
44.831

@<SCITEGIC>MOL_PROPERTY
VdW
SciTegic.value.DoubleValue
0.178

@<SCITEGIC>MOL_PROPERTY
VdW6
SciTegic.value.DoubleValue
-3.743

@<SCITEGIC>MOL_PROPERTY
VdW12
SciTegic.value.DoubleValue
3.922

@<SCITEGIC>MOL_PROPERTY
Bond
SciTegic.value.DoubleValue
0.138

@<SCITEGIC>MOL_PROPERTY
Angle
SciTegic.value.DoubleValue
0.941

@<SCITEGIC>MOL_PROPERTY
Pdih
SciTegic.value.DoubleValue
1.335

@<SCITEGIC>MOL_PROPERTY
Idih
SciTegic.value.DoubleValue
0.000

@<SCITEGIC>MOL_PROPERTY
Tether
SciTegic.value.DoubleValue
0.000

@<TRIPOS>MOLECULE
guest-1_confgen4.mol2 : confsearch ligand conformer 833
          17          16           1
SMALL
USER_CHARGES
 
@<TRIPOS>ATOM
       1    N1      18.968777   17.356249   22.060189 N.4        1 MOL1        -0.5891
       2    H1      18.253316   18.057952   21.850010 H          1 MOL1         0.3726
       3    H2      18.951141   17.199527   23.072368 H          1 MOL1         0.3726
       4    H3      18.668759   16.481381   21.618304 H          1 MOL1         0.3726
       5    C1      20.339810   17.790112   21.578641 C.3        1 MOL1         0.0314
       6    H4      20.296016   17.910209   20.493070 H          1 MOL1         0.0999
       7    H5      21.041957   16.981997   21.801078 H          1 MOL1         0.0999
       8    C2      20.842842   19.096580   22.226731 C.3        1 MOL1        -0.1308
       9    H6      20.922200   18.952992   23.312472 H          1 MOL1         0.1025
      10    H7      21.861865   19.296142   21.869559 H          1 MOL1         0.1025
      11    C3      19.950541   20.328761   21.935038 C.3        1 MOL1        -0.1243
      12    H8      20.376976   21.203306   22.446144 H          1 MOL1         0.1025
      13    H9      18.951486   20.182380   22.367605 H          1 MOL1         0.1025
      14    C4      19.823982   20.641155   20.426333 C.3        1 MOL1        -0.2258
      15    H10     20.811088   20.792856   19.970619 H          1 MOL1         0.1036
      16    H11     19.239186   21.556960   20.270496 H          1 MOL1         0.1036
      17    H12     19.318701   19.830203   19.886892 H          1 MOL1         0.1036
@<TRIPOS>BOND
    1     1     2    1
    2     1     3    1
    3     1     4    1
    4     1     5    1
    5     5     6    1
    6     5     7    1
    7     5     8    1
    8     8     9    1
    9     8    10    1
   10     8    11    1
   11    11    12    1
   12    11    13    1
   13    11    14    1
   14    14    15    1
   15    14    16    1
   16    14    17    1
@<TRIPOS>SUBSTRUCTURE
       1 MOL1            1 RESIDUE      1      MOL     
@<SCITEGIC>MOL_PROPERTY
VConf Rank
SciTegic.value.IntegerValue
833

@<SCITEGIC>MOL_PROPERTY
Conf_Id
SciTegic.value.IntegerValue
1

@<SCITEGIC>MOL_PROPERTY
Delta U+W
SciTegic.value.DoubleValue
0.685

@<SCITEGIC>MOL_PROPERTY
U+W
SciTegic.value.DoubleValue
-15.179

@<SCITEGIC>MOL_PROPERTY
Grad RMS
SciTegic.value.DoubleValue
0.000000

@<SCITEGIC>MOL_PROPERTY
U
SciTegic.value.DoubleValue
45.697

@<SCITEGIC>MOL_PROPERTY
W
SciTegic.value.DoubleValue
-60.876

@<SCITEGIC>MOL_PROPERTY
W(PB)
SciTegic.value.DoubleValue
-62.586

@<SCITEGIC>MOL_PROPERTY
W(SA)
SciTegic.value.DoubleValue
1.710

@<SCITEGIC>MOL_PROPERTY
Valence
SciTegic.value.DoubleValue
1.263

@<SCITEGIC>MOL_PROPERTY
Coulomb
SciTegic.value.DoubleValue
44.179

@<SCITEGIC>MOL_PROPERTY
VdW
SciTegic.value.DoubleValue
0.255

@<SCITEGIC>MOL_PROPERTY
VdW6
SciTegic.value.DoubleValue
-3.552

@<SCITEGIC>MOL_PROPERTY
VdW12
SciTegic.value.DoubleValue
3.807

@<SCITEGIC>MOL_PROPERTY
Bond
SciTegic.value.DoubleValue
0.125

@<SCITEGIC>MOL_PROPERTY
Angle
SciTegic.value.DoubleValue
0.616

@<SCITEGIC>MOL_PROPERTY
Pdih
SciTegic.value.DoubleValue
0.521

@<SCITEGIC>MOL_PROPERTY
Idih
SciTegic.value.DoubleValue
0.000

@<SCITEGIC>MOL_PROPERTY
Tether
SciTegic.value.DoubleValue
0.000

@<TRIPOS>MOLECULE
guest-1_confgen4.mol2 : confsearch ligand conformer 834
          17          16           1
SMALL
USER_CHARGES
 
@<TRIPOS>ATOM
       1    N1      20.863265   18.932688   19.850897 N.4        1 MOL1        -0.5891
       2    H1      20.212112   18.733545   19.085574 H          1 MOL1         0.3726
       3    H2      21.039259   18.048518   20.336405 H          1 MOL1         0.3726
       4    H3      21.748618   19.219547   19.421329 H          1 MOL1         0.3726
       5    C1      20.323408   19.992490   20.791766 C.3        1 MOL1         0.0314
       6    H4      20.195742   20.913980   20.217227 H          1 MOL1         0.0999
       7    H5      21.075771   20.176833   21.562981 H          1 MOL1         0.0999
       8    C2      18.982371   19.613177   21.453325 C.3        1 MOL1        -0.1308
       9    H6      18.639010   20.460193   22.061989 H          1 MOL1         0.1025
      10    H7      18.223271   19.470061   20.672919 H          1 MOL1         0.1025
      11    C3      19.053682   18.344861   22.339806 C.3        1 MOL1        -0.1243
      12    H8      19.307044   17.469370   21.726637 H          1 MOL1         0.1025
      13    H9      18.055250   18.146146   22.753993 H          1 MOL1         0.1025
      14    C4      20.063131   18.475326   23.503330 C.3        1 MOL1        -0.2258
      15    H10     20.032864   17.582521   24.141258 H          1 MOL1         0.1036
      16    H11     19.829972   19.344172   24.132464 H          1 MOL1         0.1036
      17    H12     21.091216   18.584611   23.135841 H          1 MOL1         0.1036
@<TRIPOS>BOND
    1     1     2    1
    2     1     3    1
    3     1     4    1
    4     1     5    1
    5     5     6    1
    6     5     7    1
    7     5     8    1
    8     8     9    1
    9     8    10    1
   10     8    11    1
   11    11    12    1
   12    11    13    1
   13    11    14    1
   14    14    15    1
   15    14    16    1
   16    14    17    1
@<TRIPOS>SUBSTRUCTURE
       1 MOL1            1 RESIDUE      1      MOL     
@<SCITEGIC>MOL_PROPERTY
VConf Rank
SciTegic.value.IntegerValue
834

@<SCITEGIC>MOL_PROPERTY
Conf_Id
SciTegic.value.IntegerValue
43

@<SCITEGIC>MOL_PROPERTY
Delta U+W
SciTegic.value.DoubleValue
0.642

@<SCITEGIC>MOL_PROPERTY
U+W
SciTegic.value.DoubleValue
-15.222

@<SCITEGIC>MOL_PROPERTY
Grad RMS
SciTegic.value.DoubleValue
0.000000

@<SCITEGIC>MOL_PROPERTY
U
SciTegic.value.DoubleValue
45.697

@<SCITEGIC>MOL_PROPERTY
W
SciTegic.value.DoubleValue
-60.919

@<SCITEGIC>MOL_PROPERTY
W(PB)
SciTegic.value.DoubleValue
-62.631

@<SCITEGIC>MOL_PROPERTY
W(SA)
SciTegic.value.DoubleValue
1.712

@<SCITEGIC>MOL_PROPERTY
Valence
SciTegic.value.DoubleValue
1.262

@<SCITEGIC>MOL_PROPERTY
Coulomb
SciTegic.value.DoubleValue
44.179

@<SCITEGIC>MOL_PROPERTY
VdW
SciTegic.value.DoubleValue
0.255

@<SCITEGIC>MOL_PROPERTY
VdW6
SciTegic.value.DoubleValue
-3.552

@<SCITEGIC>MOL_PROPERTY
VdW12
SciTegic.value.DoubleValue
3.807

@<SCITEGIC>MOL_PROPERTY
Bond
SciTegic.value.DoubleValue
0.125

@<SCITEGIC>MOL_PROPERTY
Angle
SciTegic.value.DoubleValue
0.616

@<SCITEGIC>MOL_PROPERTY
Pdih
SciTegic.value.DoubleValue
0.521

@<SCITEGIC>MOL_PROPERTY
Idih
SciTegic.value.DoubleValue
0.000

@<SCITEGIC>MOL_PROPERTY
Tether
SciTegic.value.DoubleValue
0.000

@<TRIPOS>MOLECULE
guest-1_confgen4.mol2 : confsearch ligand conformer 835
          17          16           1
SMALL
USER_CHARGES
 
@<TRIPOS>ATOM
       1    N1      18.597964   17.212437   20.451235 N.4        1 MOL1        -0.5891
       2    H1      19.313785   16.480287   20.486599 H          1 MOL1         0.3726
       3    H2      18.615529   17.604702   19.504917 H          1 MOL1         0.3726
       4    H3      17.691693   16.746239   20.561872 H          1 MOL1         0.3726
       5    C1      18.818600   18.274073   21.510294 C.3        1 MOL1         0.0314
       6    H4      18.756329   17.791960   22.489688 H          1 MOL1         0.0999
       7    H5      18.005448   19.001054   21.434093 H          1 MOL1         0.0999
       8    C2      20.171918   18.995277   21.373706 C.3        1 MOL1        -0.1308
       9    H6      20.985457   18.260183   21.435205 H          1 MOL1         0.1025
      10    H7      20.237099   19.465236   20.383312 H          1 MOL1         0.1025
      11    C3      20.356333   20.067097   22.470389 C.3        1 MOL1        -0.1243
      12    H8      20.287873   19.597800   23.462055 H          1 MOL1         0.1025
      13    H9      19.540481   20.801420   22.411406 H          1 MOL1         0.1025
      14    C4      21.711831   20.794778   22.339778 C.3        1 MOL1        -0.2258
      15    H10     21.823331   21.551380   23.127286 H          1 MOL1         0.1036
      16    H11     21.795724   21.303433   21.370532 H          1 MOL1         0.1036
      17    H12     22.549012   20.090292   22.429415 H          1 MOL1         0.1036
@<TRIPOS>BOND
    1     1     2    1
    2     1     3    1
    3     1     4    1
    4     1     5    1
    5     5     6    1
    6     5     7    1
    7     5     8    1
    8     8     9    1
    9     8    10    1
   10     8    11    1
   11    11    12    1
   12    11    13    1
   13    11    14    1
   14    14    15    1
   15    14    16    1
   16    14    17    1
@<TRIPOS>SUBSTRUCTURE
       1 MOL1            1 RESIDUE      1      MOL     
@<SCITEGIC>MOL_PROPERTY
VConf Rank
SciTegic.value.IntegerValue
835

@<SCITEGIC>MOL_PROPERTY
Conf_Id
SciTegic.value.IntegerValue
7

@<SCITEGIC>MOL_PROPERTY
Delta U+W
SciTegic.value.DoubleValue
0.000

@<SCITEGIC>MOL_PROPERTY
U+W
SciTegic.value.DoubleValue
-15.865

@<SCITEGIC>MOL_PROPERTY
Grad RMS
SciTegic.value.DoubleValue
0.000000

@<SCITEGIC>MOL_PROPERTY
U
SciTegic.value.DoubleValue
44.664

@<SCITEGIC>MOL_PROPERTY
W
SciTegic.value.DoubleValue
-60.529

@<SCITEGIC>MOL_PROPERTY
W(PB)
SciTegic.value.DoubleValue
-62.309

@<SCITEGIC>MOL_PROPERTY
W(SA)
SciTegic.value.DoubleValue
1.780

@<SCITEGIC>MOL_PROPERTY
Valence
SciTegic.value.DoubleValue
0.872

@<SCITEGIC>MOL_PROPERTY
Coulomb
SciTegic.value.DoubleValue
43.648

@<SCITEGIC>MOL_PROPERTY
VdW
SciTegic.value.DoubleValue
0.144

@<SCITEGIC>MOL_PROPERTY
VdW6
SciTegic.value.DoubleValue
-2.370

@<SCITEGIC>MOL_PROPERTY
VdW12
SciTegic.value.DoubleValue
2.515

@<SCITEGIC>MOL_PROPERTY
Bond
SciTegic.value.DoubleValue
0.080

@<SCITEGIC>MOL_PROPERTY
Angle
SciTegic.value.DoubleValue
0.376

@<SCITEGIC>MOL_PROPERTY
Pdih
SciTegic.value.DoubleValue
0.416

@<SCITEGIC>MOL_PROPERTY
Idih
SciTegic.value.DoubleValue
0.000

@<SCITEGIC>MOL_PROPERTY
Tether
SciTegic.value.DoubleValue
0.000

@<TRIPOS>MOLECULE
guest-1_confgen4.mol2 : confsearch ligand conformer 836
          17          16           1
SMALL
USER_CHARGES
 
@<TRIPOS>ATOM
       1    N1      19.805076   21.506970   21.608727 N.4        1 MOL1        -0.5891
       2    H1      18.873222   21.789622   21.927170 H          1 MOL1         0.3726
       3    H2      19.830173   21.643448   20.593645 H          1 MOL1         0.3726
       4    H3      20.471104   22.172646   22.013852 H          1 MOL1         0.3726
       5    C1      20.128884   20.078223   21.997552 C.3        1 MOL1         0.0314
       6    H4      20.113729   20.013275   23.088864 H          1 MOL1         0.0999
       7    H5      21.143418   19.858662   21.654985 H          1 MOL1         0.0999
       8    C2      19.146182   19.050411   21.404377 C.3        1 MOL1        -0.1308
       9    H6      18.125838   19.303401   21.721821 H          1 MOL1         0.1025
      10    H7      19.160179   19.116813   20.308346 H          1 MOL1         0.1025
      11    C3      19.463970   17.600905   21.840205 C.3        1 MOL1        -0.1243
      12    H8      18.683521   16.931959   21.451114 H          1 MOL1         0.1025
      13    H9      19.417630   17.525016   22.935776 H          1 MOL1         0.1025
      14    C4      20.842933   17.109184   21.343588 C.3        1 MOL1        -0.2258
      15    H10     20.917664   17.180405   20.250671 H          1 MOL1         0.1036
      16    H11     21.000291   16.059095   21.622083 H          1 MOL1         0.1036
      17    H12     21.661567   17.693737   21.782023 H          1 MOL1         0.1036
@<TRIPOS>BOND
    1     1     2    1
    2     1     3    1
    3     1     4    1
    4     1     5    1
    5     5     6    1
    6     5     7    1
    7     5     8    1
    8     8     9    1
    9     8    10    1
   10     8    11    1
   11    11    12    1
   12    11    13    1
   13    11    14    1
   14    14    15    1
   15    14    16    1
   16    14    17    1
@<TRIPOS>SUBSTRUCTURE
       1 MOL1            1 RESIDUE      1      MOL     
@<SCITEGIC>MOL_PROPERTY
VConf Rank
SciTegic.value.IntegerValue
836

@<SCITEGIC>MOL_PROPERTY
Conf_Id
SciTegic.value.IntegerValue
36

@<SCITEGIC>MOL_PROPERTY
Delta U+W
SciTegic.value.DoubleValue
0.275

@<SCITEGIC>MOL_PROPERTY
U+W
SciTegic.value.DoubleValue
-15.590

@<SCITEGIC>MOL_PROPERTY
Grad RMS
SciTegic.value.DoubleValue
0.000000

@<SCITEGIC>MOL_PROPERTY
U
SciTegic.value.DoubleValue
45.174

@<SCITEGIC>MOL_PROPERTY
W
SciTegic.value.DoubleValue
-60.765

@<SCITEGIC>MOL_PROPERTY
W(PB)
SciTegic.value.DoubleValue
-62.518

@<SCITEGIC>MOL_PROPERTY
W(SA)
SciTegic.value.DoubleValue
1.754

@<SCITEGIC>MOL_PROPERTY
Valence
SciTegic.value.DoubleValue
1.161

@<SCITEGIC>MOL_PROPERTY
Coulomb
SciTegic.value.DoubleValue
43.789

@<SCITEGIC>MOL_PROPERTY
VdW
SciTegic.value.DoubleValue
0.224

@<SCITEGIC>MOL_PROPERTY
VdW6
SciTegic.value.DoubleValue
-2.897

@<SCITEGIC>MOL_PROPERTY
VdW12
SciTegic.value.DoubleValue
3.121

@<SCITEGIC>MOL_PROPERTY
Bond
SciTegic.value.DoubleValue
0.100

@<SCITEGIC>MOL_PROPERTY
Angle
SciTegic.value.DoubleValue
0.500

@<SCITEGIC>MOL_PROPERTY
Pdih
SciTegic.value.DoubleValue
0.561

@<SCITEGIC>MOL_PROPERTY
Idih
SciTegic.value.DoubleValue
0.000

@<SCITEGIC>MOL_PROPERTY
Tether
SciTegic.value.DoubleValue
0.000

@<TRIPOS>MOLECULE
guest-1_confgen4.mol2 : confsearch ligand conformer 837
          17          16           1
SMALL
USER_CHARGES
 
@<TRIPOS>ATOM
       1    N1      21.117182   17.695471   22.231313 N.4        1 MOL1        -0.5891
       2    H1      20.159858   17.336676   22.190788 H          1 MOL1         0.3726
       3    H2      21.307007   17.937841   23.208402 H          1 MOL1         0.3726
       4    H3      21.741704   16.918922   21.990965 H          1 MOL1         0.3726
       5    C1      21.312188   18.882770   21.308099 C.3        1 MOL1         0.0314
       6    H4      21.163820   18.550209   20.277229 H          1 MOL1         0.0999
       7    H5      22.352518   19.202354   21.413534 H          1 MOL1         0.0999
       8    C2      20.385615   20.079572   21.609329 C.3        1 MOL1        -0.1308
       9    H6      20.343346   20.258697   22.691852 H          1 MOL1         0.1025
      10    H7      20.844910   20.976693   21.173361 H          1 MOL1         0.1025
      11    C3      18.954622   19.946676   21.028551 C.3        1 MOL1        -0.1243
      12    H8      19.008083   19.831231   19.936839 H          1 MOL1         0.1025
      13    H9      18.419253   20.889550   21.208437 H          1 MOL1         0.1025
      14    C4      18.126297   18.788138   21.629008 C.3        1 MOL1        -0.2258
      15    H10     18.503099   17.812211   21.301496 H          1 MOL1         0.1036
      16    H11     17.081307   18.857014   21.299755 H          1 MOL1         0.1036
      17    H12     18.132388   18.820693   22.726303 H          1 MOL1         0.1036
@<TRIPOS>BOND
    1     1     2    1
    2     1     3    1
    3     1     4    1
    4     1     5    1
    5     5     6    1
    6     5     7    1
    7     5     8    1
    8     8     9    1
    9     8    10    1
   10     8    11    1
   11    11    12    1
   12    11    13    1
   13    11    14    1
   14    14    15    1
   15    14    16    1
   16    14    17    1
@<TRIPOS>SUBSTRUCTURE
       1 MOL1            1 RESIDUE      1      MOL     
@<SCITEGIC>MOL_PROPERTY
VConf Rank
SciTegic.value.IntegerValue
837

@<SCITEGIC>MOL_PROPERTY
Conf_Id
SciTegic.value.IntegerValue
19

@<SCITEGIC>MOL_PROPERTY
Delta U+W
SciTegic.value.DoubleValue
2.662

@<SCITEGIC>MOL_PROPERTY
U+W
SciTegic.value.DoubleValue
-13.203

@<SCITEGIC>MOL_PROPERTY
Grad RMS
SciTegic.value.DoubleValue
0.000000

@<SCITEGIC>MOL_PROPERTY
U
SciTegic.value.DoubleValue
47.423

@<SCITEGIC>MOL_PROPERTY
W
SciTegic.value.DoubleValue
-60.626

@<SCITEGIC>MOL_PROPERTY
W(PB)
SciTegic.value.DoubleValue
-62.328

@<SCITEGIC>MOL_PROPERTY
W(SA)
SciTegic.value.DoubleValue
1.702

@<SCITEGIC>MOL_PROPERTY
Valence
SciTegic.value.DoubleValue
2.414

@<SCITEGIC>MOL_PROPERTY
Coulomb
SciTegic.value.DoubleValue
44.831

@<SCITEGIC>MOL_PROPERTY
VdW
SciTegic.value.DoubleValue
0.178

@<SCITEGIC>MOL_PROPERTY
VdW6
SciTegic.value.DoubleValue
-3.743

@<SCITEGIC>MOL_PROPERTY
VdW12
SciTegic.value.DoubleValue
3.921

@<SCITEGIC>MOL_PROPERTY
Bond
SciTegic.value.DoubleValue
0.138

@<SCITEGIC>MOL_PROPERTY
Angle
SciTegic.value.DoubleValue
0.941

@<SCITEGIC>MOL_PROPERTY
Pdih
SciTegic.value.DoubleValue
1.335

@<SCITEGIC>MOL_PROPERTY
Idih
SciTegic.value.DoubleValue
0.000

@<SCITEGIC>MOL_PROPERTY
Tether
SciTegic.value.DoubleValue
0.000

@<TRIPOS>MOLECULE
guest-1_confgen4.mol2 : confsearch ligand conformer 838
          17          16           1
SMALL
USER_CHARGES
 
@<TRIPOS>ATOM
       1    N1      19.972581   18.284862   19.914177 N.4        1 MOL1        -0.5891
       2    H1      19.694937   17.496690   19.320441 H          1 MOL1         0.3726
       3    H2      20.694963   18.801437   19.403496 H          1 MOL1         0.3726
       4    H3      19.161023   18.902693   19.994817 H          1 MOL1         0.3726
       5    C1      20.464261   17.822361   21.272257 C.3        1 MOL1         0.0314
       6    H4      21.326873   17.173934   21.096242 H          1 MOL1         0.0999
       7    H5      19.679937   17.221478   21.740314 H          1 MOL1         0.0999
       8    C2      20.880805   18.967067   22.219753 C.3        1 MOL1        -0.1308
       9    H6      21.551904   18.545281   22.979733 H          1 MOL1         0.1025
      10    H7      21.475326   19.710326   21.672176 H          1 MOL1         0.1025
      11    C3      19.701649   19.654781   22.954154 C.3        1 MOL1        -0.1243
      12    H8      20.115220   20.374589   23.674450 H          1 MOL1         0.1025
      13    H9      19.152607   18.911254   23.548916 H          1 MOL1         0.1025
      14    C4      18.716871   20.399525   22.024396 C.3        1 MOL1        -0.2258
      15    H10     19.246547   21.083621   21.348669 H          1 MOL1         0.1036
      16    H11     18.011768   20.996763   22.617096 H          1 MOL1         0.1036
      17    H12     18.121940   19.700183   21.425517 H          1 MOL1         0.1036
@<TRIPOS>BOND
    1     1     2    1
    2     1     3    1
    3     1     4    1
    4     1     5    1
    5     5     6    1
    6     5     7    1
    7     5     8    1
    8     8     9    1
    9     8    10    1
   10     8    11    1
   11    11    12    1
   12    11    13    1
   13    11    14    1
   14    14    15    1
   15    14    16    1
   16    14    17    1
@<TRIPOS>SUBSTRUCTURE
       1 MOL1            1 RESIDUE      1      MOL     
@<SCITEGIC>MOL_PROPERTY
VConf Rank
SciTegic.value.IntegerValue
838

@<SCITEGIC>MOL_PROPERTY
Conf_Id
SciTegic.value.IntegerValue
44

@<SCITEGIC>MOL_PROPERTY
Delta U+W
SciTegic.value.DoubleValue
2.712

@<SCITEGIC>MOL_PROPERTY
U+W
SciTegic.value.DoubleValue
-13.153

@<SCITEGIC>MOL_PROPERTY
Grad RMS
SciTegic.value.DoubleValue
0.000000

@<SCITEGIC>MOL_PROPERTY
U
SciTegic.value.DoubleValue
47.423

@<SCITEGIC>MOL_PROPERTY
W
SciTegic.value.DoubleValue
-60.576

@<SCITEGIC>MOL_PROPERTY
W(PB)
SciTegic.value.DoubleValue
-62.262

@<SCITEGIC>MOL_PROPERTY
W(SA)
SciTegic.value.DoubleValue
1.687

@<SCITEGIC>MOL_PROPERTY
Valence
SciTegic.value.DoubleValue
2.414

@<SCITEGIC>MOL_PROPERTY
Coulomb
SciTegic.value.DoubleValue
44.831

@<SCITEGIC>MOL_PROPERTY
VdW
SciTegic.value.DoubleValue
0.178

@<SCITEGIC>MOL_PROPERTY
VdW6
SciTegic.value.DoubleValue
-3.743

@<SCITEGIC>MOL_PROPERTY
VdW12
SciTegic.value.DoubleValue
3.922

@<SCITEGIC>MOL_PROPERTY
Bond
SciTegic.value.DoubleValue
0.138

@<SCITEGIC>MOL_PROPERTY
Angle
SciTegic.value.DoubleValue
0.941

@<SCITEGIC>MOL_PROPERTY
Pdih
SciTegic.value.DoubleValue
1.335

@<SCITEGIC>MOL_PROPERTY
Idih
SciTegic.value.DoubleValue
0.000

@<SCITEGIC>MOL_PROPERTY
Tether
SciTegic.value.DoubleValue
0.000

@<TRIPOS>MOLECULE
guest-1_confgen4.mol2 : confsearch ligand conformer 839
          17          16           1
SMALL
USER_CHARGES
 
@<TRIPOS>ATOM
       1    N1      19.125542   19.634533   23.320103 N.4        1 MOL1        -0.5891
       2    H1      18.583302   20.073714   22.570743 H          1 MOL1         0.3726
       3    H2      19.687501   20.370321   23.758506 H          1 MOL1         0.3726
       4    H3      18.455032   19.312178   24.025208 H          1 MOL1         0.3726
       5    C1      19.986239   18.499498   22.799761 C.3        1 MOL1         0.0314
       6    H4      19.325403   17.739975   22.374057 H          1 MOL1         0.0999
       7    H5      20.504462   18.055862   23.654262 H          1 MOL1         0.0999
       8    C2      21.023135   18.937372   21.744758 C.3        1 MOL1        -0.1308
       9    H6      21.707018   19.669734   22.193867 H          1 MOL1         0.1025
      10    H7      21.638996   18.068877   21.475990 H          1 MOL1         0.1025
      11    C3      20.399734   19.536872   20.459640 C.3        1 MOL1        -0.1243
      12    H8      21.209729   19.831213   19.777602 H          1 MOL1         0.1025
      13    H9      19.855061   20.460175   20.699428 H          1 MOL1         0.1025
      14    C4      19.459116   18.552836   19.727037 C.3        1 MOL1        -0.2258
      15    H10     19.981698   17.620856   19.475265 H          1 MOL1         0.1036
      16    H11     19.093128   18.994566   18.791143 H          1 MOL1         0.1036
      17    H12     18.583548   18.300182   20.338180 H          1 MOL1         0.1036
@<TRIPOS>BOND
    1     1     2    1
    2     1     3    1
    3     1     4    1
    4     1     5    1
    5     5     6    1
    6     5     7    1
    7     5     8    1
    8     8     9    1
    9     8    10    1
   10     8    11    1
   11    11    12    1
   12    11    13    1
   13    11    14    1
   14    14    15    1
   15    14    16    1
   16    14    17    1
@<TRIPOS>SUBSTRUCTURE
       1 MOL1            1 RESIDUE      1      MOL     
@<SCITEGIC>MOL_PROPERTY
VConf Rank
SciTegic.value.IntegerValue
839

@<SCITEGIC>MOL_PROPERTY
Conf_Id
SciTegic.value.IntegerValue
1

@<SCITEGIC>MOL_PROPERTY
Delta U+W
SciTegic.value.DoubleValue
0.685

@<SCITEGIC>MOL_PROPERTY
U+W
SciTegic.value.DoubleValue
-15.179

@<SCITEGIC>MOL_PROPERTY
Grad RMS
SciTegic.value.DoubleValue
0.000000

@<SCITEGIC>MOL_PROPERTY
U
SciTegic.value.DoubleValue
45.697

@<SCITEGIC>MOL_PROPERTY
W
SciTegic.value.DoubleValue
-60.876

@<SCITEGIC>MOL_PROPERTY
W(PB)
SciTegic.value.DoubleValue
-62.586

@<SCITEGIC>MOL_PROPERTY
W(SA)
SciTegic.value.DoubleValue
1.710

@<SCITEGIC>MOL_PROPERTY
Valence
SciTegic.value.DoubleValue
1.263

@<SCITEGIC>MOL_PROPERTY
Coulomb
SciTegic.value.DoubleValue
44.179

@<SCITEGIC>MOL_PROPERTY
VdW
SciTegic.value.DoubleValue
0.255

@<SCITEGIC>MOL_PROPERTY
VdW6
SciTegic.value.DoubleValue
-3.552

@<SCITEGIC>MOL_PROPERTY
VdW12
SciTegic.value.DoubleValue
3.807

@<SCITEGIC>MOL_PROPERTY
Bond
SciTegic.value.DoubleValue
0.125

@<SCITEGIC>MOL_PROPERTY
Angle
SciTegic.value.DoubleValue
0.616

@<SCITEGIC>MOL_PROPERTY
Pdih
SciTegic.value.DoubleValue
0.521

@<SCITEGIC>MOL_PROPERTY
Idih
SciTegic.value.DoubleValue
0.000

@<SCITEGIC>MOL_PROPERTY
Tether
SciTegic.value.DoubleValue
0.000

@<TRIPOS>MOLECULE
guest-1_confgen4.mol2 : confsearch ligand conformer 840
          17          16           1
SMALL
USER_CHARGES
 
@<TRIPOS>ATOM
       1    N1      21.437325   18.016643   20.803298 N.4        1 MOL1        -0.5891
       2    H1      22.125636   18.642874   20.375000 H          1 MOL1         0.3726
       3    H2      20.649754   17.942468   20.153161 H          1 MOL1         0.3726
       4    H3      21.870650   17.089186   20.855432 H          1 MOL1         0.3726
       5    C1      20.995176   18.510079   22.167441 C.3        1 MOL1         0.0314
       6    H4      21.875142   18.528431   22.816179 H          1 MOL1         0.0999
       7    H5      20.287989   17.784722   22.577989 H          1 MOL1         0.0999
       8    C2      20.348905   19.910682   22.143658 C.3        1 MOL1        -0.1308
       9    H6      20.121454   20.210112   23.175361 H          1 MOL1         0.1025
      10    H7      21.080229   20.638717   21.768321 H          1 MOL1         0.1025
      11    C3      19.057248   19.994159   21.292653 C.3        1 MOL1        -0.1243
      12    H8      19.285573   19.786503   20.238423 H          1 MOL1         0.1025
      13    H9      18.679365   21.025741   21.323447 H          1 MOL1         0.1025
      14    C4      17.946237   19.037564   21.782937 C.3        1 MOL1        -0.2258
      15    H10     17.030463   19.177092   21.193991 H          1 MOL1         0.1036
      16    H11     17.699081   19.226502   22.835687 H          1 MOL1         0.1036
      17    H12     18.245759   17.986565   21.684763 H          1 MOL1         0.1036
@<TRIPOS>BOND
    1     1     2    1
    2     1     3    1
    3     1     4    1
    4     1     5    1
    5     5     6    1
    6     5     7    1
    7     5     8    1
    8     8     9    1
    9     8    10    1
   10     8    11    1
   11    11    12    1
   12    11    13    1
   13    11    14    1
   14    14    15    1
   15    14    16    1
   16    14    17    1
@<TRIPOS>SUBSTRUCTURE
       1 MOL1            1 RESIDUE      1      MOL     
@<SCITEGIC>MOL_PROPERTY
VConf Rank
SciTegic.value.IntegerValue
840

@<SCITEGIC>MOL_PROPERTY
Conf_Id
SciTegic.value.IntegerValue
43

@<SCITEGIC>MOL_PROPERTY
Delta U+W
SciTegic.value.DoubleValue
0.642

@<SCITEGIC>MOL_PROPERTY
U+W
SciTegic.value.DoubleValue
-15.222

@<SCITEGIC>MOL_PROPERTY
Grad RMS
SciTegic.value.DoubleValue
0.000000

@<SCITEGIC>MOL_PROPERTY
U
SciTegic.value.DoubleValue
45.697

@<SCITEGIC>MOL_PROPERTY
W
SciTegic.value.DoubleValue
-60.919

@<SCITEGIC>MOL_PROPERTY
W(PB)
SciTegic.value.DoubleValue
-62.631

@<SCITEGIC>MOL_PROPERTY
W(SA)
SciTegic.value.DoubleValue
1.712

@<SCITEGIC>MOL_PROPERTY
Valence
SciTegic.value.DoubleValue
1.262

@<SCITEGIC>MOL_PROPERTY
Coulomb
SciTegic.value.DoubleValue
44.179

@<SCITEGIC>MOL_PROPERTY
VdW
SciTegic.value.DoubleValue
0.255

@<SCITEGIC>MOL_PROPERTY
VdW6
SciTegic.value.DoubleValue
-3.552

@<SCITEGIC>MOL_PROPERTY
VdW12
SciTegic.value.DoubleValue
3.807

@<SCITEGIC>MOL_PROPERTY
Bond
SciTegic.value.DoubleValue
0.125

@<SCITEGIC>MOL_PROPERTY
Angle
SciTegic.value.DoubleValue
0.616

@<SCITEGIC>MOL_PROPERTY
Pdih
SciTegic.value.DoubleValue
0.521

@<SCITEGIC>MOL_PROPERTY
Idih
SciTegic.value.DoubleValue
0.000

@<SCITEGIC>MOL_PROPERTY
Tether
SciTegic.value.DoubleValue
0.000

@<TRIPOS>MOLECULE
guest-1_confgen4.mol2 : confsearch ligand conformer 841
          17          16           1
SMALL
USER_CHARGES
 
@<TRIPOS>ATOM
       1    N1      18.308830   17.656811   20.223450 N.4        1 MOL1        -0.5891
       2    H1      18.736867   17.813338   19.305855 H          1 MOL1         0.3726
       3    H2      17.505609   18.289094   20.292380 H          1 MOL1         0.3726
       4    H3      17.934789   16.702369   20.216899 H          1 MOL1         0.3726
       5    C1      19.296102   17.867438   21.354064 C.3        1 MOL1         0.0314
       6    H4      20.106022   17.142708   21.234399 H          1 MOL1         0.0999
       7    H5      18.782032   17.654255   22.295239 H          1 MOL1         0.0999
       8    C2      19.878273   19.292138   21.393646 C.3        1 MOL1        -0.1308
       9    H6      20.380293   19.508229   20.441138 H          1 MOL1         0.1025
      10    H7      19.060882   20.017999   21.498475 H          1 MOL1         0.1025
      11    C3      20.877999   19.463869   22.558367 C.3        1 MOL1        -0.1243
      12    H8      21.694714   18.735320   22.455802 H          1 MOL1         0.1025
      13    H9      20.376907   19.244544   23.511850 H          1 MOL1         0.1025
      14    C4      21.466224   20.890694   22.604373 C.3        1 MOL1        -0.2258
      15    H10     22.173366   20.991998   23.437881 H          1 MOL1         0.1036
      16    H11     20.675670   21.640036   22.741190 H          1 MOL1         0.1036
      17    H12     22.003828   21.126807   21.676773 H          1 MOL1         0.1036
@<TRIPOS>BOND
    1     1     2    1
    2     1     3    1
    3     1     4    1
    4     1     5    1
    5     5     6    1
    6     5     7    1
    7     5     8    1
    8     8     9    1
    9     8    10    1
   10     8    11    1
   11    11    12    1
   12    11    13    1
   13    11    14    1
   14    14    15    1
   15    14    16    1
   16    14    17    1
@<TRIPOS>SUBSTRUCTURE
       1 MOL1            1 RESIDUE      1      MOL     
@<SCITEGIC>MOL_PROPERTY
VConf Rank
SciTegic.value.IntegerValue
841

@<SCITEGIC>MOL_PROPERTY
Conf_Id
SciTegic.value.IntegerValue
7

@<SCITEGIC>MOL_PROPERTY
Delta U+W
SciTegic.value.DoubleValue
0.000

@<SCITEGIC>MOL_PROPERTY
U+W
SciTegic.value.DoubleValue
-15.865

@<SCITEGIC>MOL_PROPERTY
Grad RMS
SciTegic.value.DoubleValue
0.000000

@<SCITEGIC>MOL_PROPERTY
U
SciTegic.value.DoubleValue
44.664

@<SCITEGIC>MOL_PROPERTY
W
SciTegic.value.DoubleValue
-60.529

@<SCITEGIC>MOL_PROPERTY
W(PB)
SciTegic.value.DoubleValue
-62.309

@<SCITEGIC>MOL_PROPERTY
W(SA)
SciTegic.value.DoubleValue
1.780

@<SCITEGIC>MOL_PROPERTY
Valence
SciTegic.value.DoubleValue
0.872

@<SCITEGIC>MOL_PROPERTY
Coulomb
SciTegic.value.DoubleValue
43.648

@<SCITEGIC>MOL_PROPERTY
VdW
SciTegic.value.DoubleValue
0.144

@<SCITEGIC>MOL_PROPERTY
VdW6
SciTegic.value.DoubleValue
-2.370

@<SCITEGIC>MOL_PROPERTY
VdW12
SciTegic.value.DoubleValue
2.515

@<SCITEGIC>MOL_PROPERTY
Bond
SciTegic.value.DoubleValue
0.080

@<SCITEGIC>MOL_PROPERTY
Angle
SciTegic.value.DoubleValue
0.376

@<SCITEGIC>MOL_PROPERTY
Pdih
SciTegic.value.DoubleValue
0.416

@<SCITEGIC>MOL_PROPERTY
Idih
SciTegic.value.DoubleValue
0.000

@<SCITEGIC>MOL_PROPERTY
Tether
SciTegic.value.DoubleValue
0.000

@<TRIPOS>MOLECULE
guest-1_confgen4.mol2 : confsearch ligand conformer 842
          17          16           1
SMALL
USER_CHARGES
 
@<TRIPOS>ATOM
       1    N1      19.629180   20.962787   20.119107 N.4        1 MOL1        -0.5891
       2    H1      18.778733   21.467055   20.387624 H          1 MOL1         0.3726
       3    H2      19.407512   20.428231   19.273672 H          1 MOL1         0.3726
       4    H3      20.320444   21.670210   19.849756 H          1 MOL1         0.3726
       5    C1      20.138471   20.073409   21.235792 C.3        1 MOL1         0.0314
       6    H4      20.382254   20.710199   22.090471 H          1 MOL1         0.0999
       7    H5      21.058865   19.595110   20.890911 H          1 MOL1         0.0999
       8    C2      19.122947   18.997249   21.665383 C.3        1 MOL1        -0.1308
       9    H6      18.188623   19.486127   21.971840 H          1 MOL1         0.1025
      10    H7      18.876838   18.358724   20.806544 H          1 MOL1         0.1025
      11    C3      19.638850   18.121915   22.831419 C.3        1 MOL1        -0.1243
      12    H8      18.840586   17.432579   23.140564 H          1 MOL1         0.1025
      13    H9      19.854182   18.755802   23.703200 H          1 MOL1         0.1025
      14    C4      20.896837   17.303003   22.461542 C.3        1 MOL1        -0.2258
      15    H10     20.709999   16.664562   21.588266 H          1 MOL1         0.1036
      16    H11     21.191260   16.652191   23.295068 H          1 MOL1         0.1036
      17    H12     21.749800   17.954620   22.233639 H          1 MOL1         0.1036
@<TRIPOS>BOND
    1     1     2    1
    2     1     3    1
    3     1     4    1
    4     1     5    1
    5     5     6    1
    6     5     7    1
    7     5     8    1
    8     8     9    1
    9     8    10    1
   10     8    11    1
   11    11    12    1
   12    11    13    1
   13    11    14    1
   14    14    15    1
   15    14    16    1
   16    14    17    1
@<TRIPOS>SUBSTRUCTURE
       1 MOL1            1 RESIDUE      1      MOL     
@<SCITEGIC>MOL_PROPERTY
VConf Rank
SciTegic.value.IntegerValue
842

@<SCITEGIC>MOL_PROPERTY
Conf_Id
SciTegic.value.IntegerValue
36

@<SCITEGIC>MOL_PROPERTY
Delta U+W
SciTegic.value.DoubleValue
0.275

@<SCITEGIC>MOL_PROPERTY
U+W
SciTegic.value.DoubleValue
-15.590

@<SCITEGIC>MOL_PROPERTY
Grad RMS
SciTegic.value.DoubleValue
0.000000

@<SCITEGIC>MOL_PROPERTY
U
SciTegic.value.DoubleValue
45.174

@<SCITEGIC>MOL_PROPERTY
W
SciTegic.value.DoubleValue
-60.765

@<SCITEGIC>MOL_PROPERTY
W(PB)
SciTegic.value.DoubleValue
-62.518

@<SCITEGIC>MOL_PROPERTY
W(SA)
SciTegic.value.DoubleValue
1.754

@<SCITEGIC>MOL_PROPERTY
Valence
SciTegic.value.DoubleValue
1.161

@<SCITEGIC>MOL_PROPERTY
Coulomb
SciTegic.value.DoubleValue
43.789

@<SCITEGIC>MOL_PROPERTY
VdW
SciTegic.value.DoubleValue
0.224

@<SCITEGIC>MOL_PROPERTY
VdW6
SciTegic.value.DoubleValue
-2.897

@<SCITEGIC>MOL_PROPERTY
VdW12
SciTegic.value.DoubleValue
3.121

@<SCITEGIC>MOL_PROPERTY
Bond
SciTegic.value.DoubleValue
0.100

@<SCITEGIC>MOL_PROPERTY
Angle
SciTegic.value.DoubleValue
0.500

@<SCITEGIC>MOL_PROPERTY
Pdih
SciTegic.value.DoubleValue
0.561

@<SCITEGIC>MOL_PROPERTY
Idih
SciTegic.value.DoubleValue
0.000

@<SCITEGIC>MOL_PROPERTY
Tether
SciTegic.value.DoubleValue
0.000

@<TRIPOS>MOLECULE
guest-1_confgen4.mol2 : confsearch ligand conformer 843
          17          16           1
SMALL
USER_CHARGES
 
@<TRIPOS>ATOM
       1    N1      19.218673   18.757295   19.903219 N.4        1 MOL1        -0.5891
       2    H1      18.647237   19.392660   20.465907 H          1 MOL1         0.3726
       3    H2      18.753881   17.844426   19.914104 H          1 MOL1         0.3726
       4    H3      19.185261   19.096345   18.936394 H          1 MOL1         0.3726
       5    C1      20.641125   18.671614   20.422177 C.3        1 MOL1         0.0314
       6    H4      21.107512   19.655514   20.323557 H          1 MOL1         0.0999
       7    H5      21.177854   17.976536   19.770774 H          1 MOL1         0.0999
       8    C2      20.755677   18.183191   21.881606 C.3        1 MOL1        -0.1308
       9    H6      20.085568   17.328887   22.045458 H          1 MOL1         0.1025
      10    H7      21.774138   17.799316   22.027293 H          1 MOL1         0.1025
      11    C3      20.502492   19.279301   22.947976 C.3        1 MOL1        -0.1243
      12    H8      21.220953   20.099923   22.812275 H          1 MOL1         0.1025
      13    H9      20.712090   18.852850   23.939035 H          1 MOL1         0.1025
      14    C4      19.065396   19.848183   22.950932 C.3        1 MOL1        -0.2258
      15    H10     18.875298   20.465723   22.065391 H          1 MOL1         0.1036
      16    H11     18.911440   20.488471   23.829274 H          1 MOL1         0.1036
      17    H12     18.318603   19.044481   22.989890 H          1 MOL1         0.1036
@<TRIPOS>BOND
    1     1     2    1
    2     1     3    1
    3     1     4    1
    4     1     5    1
    5     5     6    1
    6     5     7    1
    7     5     8    1
    8     8     9    1
    9     8    10    1
   10     8    11    1
   11    11    12    1
   12    11    13    1
   13    11    14    1
   14    14    15    1
   15    14    16    1
   16    14    17    1
@<TRIPOS>SUBSTRUCTURE
       1 MOL1            1 RESIDUE      1      MOL     
@<SCITEGIC>MOL_PROPERTY
VConf Rank
SciTegic.value.IntegerValue
843

@<SCITEGIC>MOL_PROPERTY
Conf_Id
SciTegic.value.IntegerValue
19

@<SCITEGIC>MOL_PROPERTY
Delta U+W
SciTegic.value.DoubleValue
2.662

@<SCITEGIC>MOL_PROPERTY
U+W
SciTegic.value.DoubleValue
-13.203

@<SCITEGIC>MOL_PROPERTY
Grad RMS
SciTegic.value.DoubleValue
0.000000

@<SCITEGIC>MOL_PROPERTY
U
SciTegic.value.DoubleValue
47.423

@<SCITEGIC>MOL_PROPERTY
W
SciTegic.value.DoubleValue
-60.626

@<SCITEGIC>MOL_PROPERTY
W(PB)
SciTegic.value.DoubleValue
-62.328

@<SCITEGIC>MOL_PROPERTY
W(SA)
SciTegic.value.DoubleValue
1.702

@<SCITEGIC>MOL_PROPERTY
Valence
SciTegic.value.DoubleValue
2.414

@<SCITEGIC>MOL_PROPERTY
Coulomb
SciTegic.value.DoubleValue
44.831

@<SCITEGIC>MOL_PROPERTY
VdW
SciTegic.value.DoubleValue
0.178

@<SCITEGIC>MOL_PROPERTY
VdW6
SciTegic.value.DoubleValue
-3.743

@<SCITEGIC>MOL_PROPERTY
VdW12
SciTegic.value.DoubleValue
3.921

@<SCITEGIC>MOL_PROPERTY
Bond
SciTegic.value.DoubleValue
0.138

@<SCITEGIC>MOL_PROPERTY
Angle
SciTegic.value.DoubleValue
0.941

@<SCITEGIC>MOL_PROPERTY
Pdih
SciTegic.value.DoubleValue
1.335

@<SCITEGIC>MOL_PROPERTY
Idih
SciTegic.value.DoubleValue
0.000

@<SCITEGIC>MOL_PROPERTY
Tether
SciTegic.value.DoubleValue
0.000

@<TRIPOS>MOLECULE
guest-1_confgen4.mol2 : confsearch ligand conformer 844
          17          16           1
SMALL
USER_CHARGES
 
@<TRIPOS>ATOM
       1    N1      20.353638   20.017260   23.122861 N.4        1 MOL1        -0.5891
       2    H1      20.997391   20.095215   23.916794 H          1 MOL1         0.3726
       3    H2      19.579370   20.663238   23.303701 H          1 MOL1         0.3726
       4    H3      20.848697   20.364465   22.297508 H          1 MOL1         0.3726
       5    C1      19.866627   18.594130   22.929057 C.3        1 MOL1         0.0314
       6    H4      19.351446   18.304373   23.848930 H          1 MOL1         0.0999
       7    H5      20.735915   17.942035   22.809004 H          1 MOL1         0.0999
       8    C2      18.906182   18.409287   21.735328 C.3        1 MOL1        -0.1308
       9    H6      18.333716   17.487815   21.905678 H          1 MOL1         0.1025
      10    H7      18.168884   19.222789   21.717010 H          1 MOL1         0.1025
      11    C3      19.608022   18.286637   20.358708 C.3        1 MOL1        -0.1243
      12    H8      18.846167   18.054156   19.601397 H          1 MOL1         0.1025
      13    H9      20.296519   17.429977   20.369908 H          1 MOL1         0.1025
      14    C4      20.371559   19.555244   19.915393 C.3        1 MOL1        -0.2258
      15    H10     19.735840   20.447587   19.984217 H          1 MOL1         0.1036
      16    H11     20.697022   19.458127   18.871459 H          1 MOL1         0.1036
      17    H12     21.272218   19.714510   20.519651 H          1 MOL1         0.1036
@<TRIPOS>BOND
    1     1     2    1
    2     1     3    1
    3     1     4    1
    4     1     5    1
    5     5     6    1
    6     5     7    1
    7     5     8    1
    8     8     9    1
    9     8    10    1
   10     8    11    1
   11    11    12    1
   12    11    13    1
   13    11    14    1
   14    14    15    1
   15    14    16    1
   16    14    17    1
@<TRIPOS>SUBSTRUCTURE
       1 MOL1            1 RESIDUE      1      MOL     
@<SCITEGIC>MOL_PROPERTY
VConf Rank
SciTegic.value.IntegerValue
844

@<SCITEGIC>MOL_PROPERTY
Conf_Id
SciTegic.value.IntegerValue
44

@<SCITEGIC>MOL_PROPERTY
Delta U+W
SciTegic.value.DoubleValue
2.712

@<SCITEGIC>MOL_PROPERTY
U+W
SciTegic.value.DoubleValue
-13.153

@<SCITEGIC>MOL_PROPERTY
Grad RMS
SciTegic.value.DoubleValue
0.000000

@<SCITEGIC>MOL_PROPERTY
U
SciTegic.value.DoubleValue
47.423

@<SCITEGIC>MOL_PROPERTY
W
SciTegic.value.DoubleValue
-60.576

@<SCITEGIC>MOL_PROPERTY
W(PB)
SciTegic.value.DoubleValue
-62.262

@<SCITEGIC>MOL_PROPERTY
W(SA)
SciTegic.value.DoubleValue
1.687

@<SCITEGIC>MOL_PROPERTY
Valence
SciTegic.value.DoubleValue
2.414

@<SCITEGIC>MOL_PROPERTY
Coulomb
SciTegic.value.DoubleValue
44.831

@<SCITEGIC>MOL_PROPERTY
VdW
SciTegic.value.DoubleValue
0.178

@<SCITEGIC>MOL_PROPERTY
VdW6
SciTegic.value.DoubleValue
-3.743

@<SCITEGIC>MOL_PROPERTY
VdW12
SciTegic.value.DoubleValue
3.922

@<SCITEGIC>MOL_PROPERTY
Bond
SciTegic.value.DoubleValue
0.138

@<SCITEGIC>MOL_PROPERTY
Angle
SciTegic.value.DoubleValue
0.941

@<SCITEGIC>MOL_PROPERTY
Pdih
SciTegic.value.DoubleValue
1.335

@<SCITEGIC>MOL_PROPERTY
Idih
SciTegic.value.DoubleValue
0.000

@<SCITEGIC>MOL_PROPERTY
Tether
SciTegic.value.DoubleValue
0.000

@<TRIPOS>MOLECULE
guest-1_confgen4.mol2 : confsearch ligand conformer 845
          17          16           1
SMALL
USER_CHARGES
 
@<TRIPOS>ATOM
       1    N1      19.009961   19.183135   23.359568 N.4        1 MOL1        -0.5891
       2    H1      19.788303   18.528009   23.475496 H          1 MOL1         0.3726
       3    H2      18.145669   18.633738   23.382837 H          1 MOL1         0.3726
       4    H3      19.001186   19.786928   24.187835 H          1 MOL1         0.3726
       5    C1      19.136457   19.984832   22.078499 C.3        1 MOL1         0.0314
       6    H4      20.060088   20.566928   22.132112 H          1 MOL1         0.0999
       7    H5      18.297590   20.685073   22.039723 H          1 MOL1         0.0999
       8    C2      19.139677   19.120472   20.800691 C.3        1 MOL1        -0.1308
       9    H6      18.191313   18.570898   20.734946 H          1 MOL1         0.1025
      10    H7      19.168912   19.785153   19.927107 H          1 MOL1         0.1025
      11    C3      20.319952   18.120516   20.719470 C.3        1 MOL1        -0.1243
      12    H8      20.230807   17.542866   19.788730 H          1 MOL1         0.1025
      13    H9      20.252840   17.389956   21.537047 H          1 MOL1         0.1025
      14    C4      21.702373   18.811685   20.751041 C.3        1 MOL1        -0.2258
      15    H10     21.794439   19.547096   19.941250 H          1 MOL1         0.1036
      16    H11     22.504928   18.073387   20.625387 H          1 MOL1         0.1036
      17    H12     21.874148   19.328091   21.703809 H          1 MOL1         0.1036
@<TRIPOS>BOND
    1     1     2    1
    2     1     3    1
    3     1     4    1
    4     1     5    1
    5     5     6    1
    6     5     7    1
    7     5     8    1
    8     8     9    1
    9     8    10    1
   10     8    11    1
   11    11    12    1
   12    11    13    1
   13    11    14    1
   14    14    15    1
   15    14    16    1
   16    14    17    1
@<TRIPOS>SUBSTRUCTURE
       1 MOL1            1 RESIDUE      1      MOL     
@<SCITEGIC>MOL_PROPERTY
VConf Rank
SciTegic.value.IntegerValue
845

@<SCITEGIC>MOL_PROPERTY
Conf_Id
SciTegic.value.IntegerValue
1

@<SCITEGIC>MOL_PROPERTY
Delta U+W
SciTegic.value.DoubleValue
0.685

@<SCITEGIC>MOL_PROPERTY
U+W
SciTegic.value.DoubleValue
-15.179

@<SCITEGIC>MOL_PROPERTY
Grad RMS
SciTegic.value.DoubleValue
0.000000

@<SCITEGIC>MOL_PROPERTY
U
SciTegic.value.DoubleValue
45.697

@<SCITEGIC>MOL_PROPERTY
W
SciTegic.value.DoubleValue
-60.876

@<SCITEGIC>MOL_PROPERTY
W(PB)
SciTegic.value.DoubleValue
-62.586

@<SCITEGIC>MOL_PROPERTY
W(SA)
SciTegic.value.DoubleValue
1.710

@<SCITEGIC>MOL_PROPERTY
Valence
SciTegic.value.DoubleValue
1.263

@<SCITEGIC>MOL_PROPERTY
Coulomb
SciTegic.value.DoubleValue
44.179

@<SCITEGIC>MOL_PROPERTY
VdW
SciTegic.value.DoubleValue
0.255

@<SCITEGIC>MOL_PROPERTY
VdW6
SciTegic.value.DoubleValue
-3.552

@<SCITEGIC>MOL_PROPERTY
VdW12
SciTegic.value.DoubleValue
3.807

@<SCITEGIC>MOL_PROPERTY
Bond
SciTegic.value.DoubleValue
0.125

@<SCITEGIC>MOL_PROPERTY
Angle
SciTegic.value.DoubleValue
0.616

@<SCITEGIC>MOL_PROPERTY
Pdih
SciTegic.value.DoubleValue
0.521

@<SCITEGIC>MOL_PROPERTY
Idih
SciTegic.value.DoubleValue
0.000

@<SCITEGIC>MOL_PROPERTY
Tether
SciTegic.value.DoubleValue
0.000

@<TRIPOS>MOLECULE
guest-1_confgen4.mol2 : confsearch ligand conformer 846
          17          16           1
SMALL
USER_CHARGES
 
@<TRIPOS>ATOM
       1    N1      18.853898   20.648089   21.177161 N.4        1 MOL1        -0.5891
       2    H1      19.450201   21.471061   21.048641 H          1 MOL1         0.3726
       3    H2      18.772534   20.487664   22.185175 H          1 MOL1         0.3726
       4    H3      17.920262   20.901186   20.838143 H          1 MOL1         0.3726
       5    C1      19.404844   19.432226   20.457444 C.3        1 MOL1         0.0314
       6    H4      19.428498   19.660459   19.388385 H          1 MOL1         0.0999
       7    H5      18.709248   18.603046   20.610451 H          1 MOL1         0.0999
       8    C2      20.816582   19.019640   20.922943 C.3        1 MOL1        -0.1308
       9    H6      21.157390   18.177138   20.306629 H          1 MOL1         0.1025
      10    H7      21.515625   19.843616   20.727621 H          1 MOL1         0.1025
      11    C3      20.895815   18.621798   22.417936 C.3        1 MOL1        -0.1243
      12    H8      20.645877   19.483477   23.051731 H          1 MOL1         0.1025
      13    H9      21.935329   18.359215   22.659525 H          1 MOL1         0.1025
      14    C4      19.980271   17.428869   22.776399 C.3        1 MOL1        -0.2258
      15    H10     20.117238   17.140384   23.826630 H          1 MOL1         0.1036
      16    H11     20.211837   16.553364   22.155967 H          1 MOL1         0.1036
      17    H12     18.920539   17.676806   22.636959 H          1 MOL1         0.1036
@<TRIPOS>BOND
    1     1     2    1
    2     1     3    1
    3     1     4    1
    4     1     5    1
    5     5     6    1
    6     5     7    1
    7     5     8    1
    8     8     9    1
    9     8    10    1
   10     8    11    1
   11    11    12    1
   12    11    13    1
   13    11    14    1
   14    14    15    1
   15    14    16    1
   16    14    17    1
@<TRIPOS>SUBSTRUCTURE
       1 MOL1            1 RESIDUE      1      MOL     
@<SCITEGIC>MOL_PROPERTY
VConf Rank
SciTegic.value.IntegerValue
846

@<SCITEGIC>MOL_PROPERTY
Conf_Id
SciTegic.value.IntegerValue
43

@<SCITEGIC>MOL_PROPERTY
Delta U+W
SciTegic.value.DoubleValue
0.642

@<SCITEGIC>MOL_PROPERTY
U+W
SciTegic.value.DoubleValue
-15.222

@<SCITEGIC>MOL_PROPERTY
Grad RMS
SciTegic.value.DoubleValue
0.000000

@<SCITEGIC>MOL_PROPERTY
U
SciTegic.value.DoubleValue
45.697

@<SCITEGIC>MOL_PROPERTY
W
SciTegic.value.DoubleValue
-60.919

@<SCITEGIC>MOL_PROPERTY
W(PB)
SciTegic.value.DoubleValue
-62.631

@<SCITEGIC>MOL_PROPERTY
W(SA)
SciTegic.value.DoubleValue
1.712

@<SCITEGIC>MOL_PROPERTY
Valence
SciTegic.value.DoubleValue
1.262

@<SCITEGIC>MOL_PROPERTY
Coulomb
SciTegic.value.DoubleValue
44.179

@<SCITEGIC>MOL_PROPERTY
VdW
SciTegic.value.DoubleValue
0.255

@<SCITEGIC>MOL_PROPERTY
VdW6
SciTegic.value.DoubleValue
-3.552

@<SCITEGIC>MOL_PROPERTY
VdW12
SciTegic.value.DoubleValue
3.807

@<SCITEGIC>MOL_PROPERTY
Bond
SciTegic.value.DoubleValue
0.125

@<SCITEGIC>MOL_PROPERTY
Angle
SciTegic.value.DoubleValue
0.616

@<SCITEGIC>MOL_PROPERTY
Pdih
SciTegic.value.DoubleValue
0.521

@<SCITEGIC>MOL_PROPERTY
Idih
SciTegic.value.DoubleValue
0.000

@<SCITEGIC>MOL_PROPERTY
Tether
SciTegic.value.DoubleValue
0.000

@<TRIPOS>MOLECULE
guest-1_confgen4.mol2 : confsearch ligand conformer 847
          17          16           1
SMALL
USER_CHARGES
 
@<TRIPOS>ATOM
       1    N1      21.343288   20.993667   22.566484 N.4        1 MOL1        -0.5891
       2    H1      21.306102   20.706275   23.549194 H          1 MOL1         0.3726
       3    H2      20.644731   21.732854   22.442715 H          1 MOL1         0.3726
       4    H3      22.261113   21.425732   22.418744 H          1 MOL1         0.3726
       5    C1      21.110594   19.828907   21.624920 C.3        1 MOL1         0.0314
       6    H4      21.906078   19.097167   21.790100 H          1 MOL1         0.0999
       7    H5      21.194935   20.201063   20.600268 H          1 MOL1         0.0999
       8    C2      19.739753   19.155777   21.819733 C.3        1 MOL1        -0.1308
       9    H6      19.652588   18.797090   22.854014 H          1 MOL1         0.1025
      10    H7      18.943897   19.897142   21.668132 H          1 MOL1         0.1025
      11    C3      19.543557   17.975915   20.842515 C.3        1 MOL1        -0.1243
      12    H8      20.341820   17.235036   20.991512 H          1 MOL1         0.1025
      13    H9      19.633918   18.333747   19.807084 H          1 MOL1         0.1025
      14    C4      18.170509   17.295669   21.032141 C.3        1 MOL1        -0.2258
      15    H10     18.050870   16.460909   20.329354 H          1 MOL1         0.1036
      16    H11     17.350590   18.004013   20.855533 H          1 MOL1         0.1036
      17    H12     18.064064   16.896683   22.049337 H          1 MOL1         0.1036
@<TRIPOS>BOND
    1     1     2    1
    2     1     3    1
    3     1     4    1
    4     1     5    1
    5     5     6    1
    6     5     7    1
    7     5     8    1
    8     8     9    1
    9     8    10    1
   10     8    11    1
   11    11    12    1
   12    11    13    1
   13    11    14    1
   14    14    15    1
   15    14    16    1
   16    14    17    1
@<TRIPOS>SUBSTRUCTURE
       1 MOL1            1 RESIDUE      1      MOL     
@<SCITEGIC>MOL_PROPERTY
VConf Rank
SciTegic.value.IntegerValue
847

@<SCITEGIC>MOL_PROPERTY
Conf_Id
SciTegic.value.IntegerValue
7

@<SCITEGIC>MOL_PROPERTY
Delta U+W
SciTegic.value.DoubleValue
0.000

@<SCITEGIC>MOL_PROPERTY
U+W
SciTegic.value.DoubleValue
-15.865

@<SCITEGIC>MOL_PROPERTY
Grad RMS
SciTegic.value.DoubleValue
0.000000

@<SCITEGIC>MOL_PROPERTY
U
SciTegic.value.DoubleValue
44.664

@<SCITEGIC>MOL_PROPERTY
W
SciTegic.value.DoubleValue
-60.529

@<SCITEGIC>MOL_PROPERTY
W(PB)
SciTegic.value.DoubleValue
-62.309

@<SCITEGIC>MOL_PROPERTY
W(SA)
SciTegic.value.DoubleValue
1.780

@<SCITEGIC>MOL_PROPERTY
Valence
SciTegic.value.DoubleValue
0.872

@<SCITEGIC>MOL_PROPERTY
Coulomb
SciTegic.value.DoubleValue
43.648

@<SCITEGIC>MOL_PROPERTY
VdW
SciTegic.value.DoubleValue
0.144

@<SCITEGIC>MOL_PROPERTY
VdW6
SciTegic.value.DoubleValue
-2.370

@<SCITEGIC>MOL_PROPERTY
VdW12
SciTegic.value.DoubleValue
2.515

@<SCITEGIC>MOL_PROPERTY
Bond
SciTegic.value.DoubleValue
0.080

@<SCITEGIC>MOL_PROPERTY
Angle
SciTegic.value.DoubleValue
0.376

@<SCITEGIC>MOL_PROPERTY
Pdih
SciTegic.value.DoubleValue
0.416

@<SCITEGIC>MOL_PROPERTY
Idih
SciTegic.value.DoubleValue
0.000

@<SCITEGIC>MOL_PROPERTY
Tether
SciTegic.value.DoubleValue
0.000

@<TRIPOS>MOLECULE
guest-1_confgen4.mol2 : confsearch ligand conformer 848
          17          16           1
SMALL
USER_CHARGES
 
@<TRIPOS>ATOM
       1    N1      19.545159   17.738847   19.661068 N.4        1 MOL1        -0.5891
       2    H1      20.229358   16.976342   19.650749 H          1 MOL1         0.3726
       3    H2      19.844459   18.420936   18.957633 H          1 MOL1         0.3726
       4    H3      18.657506   17.344794   19.332986 H          1 MOL1         0.3726
       5    C1      19.411054   18.362869   21.035830 C.3        1 MOL1         0.0314
       6    H4      19.061480   17.589657   21.725286 H          1 MOL1         0.0999
       7    H5      18.646422   19.141856   20.977906 H          1 MOL1         0.0999
       8    C2      20.728648   18.965830   21.559608 C.3        1 MOL1        -0.1308
       9    H6      21.500336   18.184737   21.575961 H          1 MOL1         0.1025
      10    H7      21.080610   19.741254   20.866262 H          1 MOL1         0.1025
      11    C3      20.588127   19.564200   22.978837 C.3        1 MOL1        -0.1243
      12    H8      21.575641   19.902325   23.323030 H          1 MOL1         0.1025
      13    H9      20.267893   18.781313   23.680777 H          1 MOL1         0.1025
      14    C4      19.599658   20.751329   23.038931 C.3        1 MOL1        -0.2258
      15    H10     19.893959   21.546208   22.341307 H          1 MOL1         0.1036
      16    H11     19.577405   21.182959   24.047994 H          1 MOL1         0.1036
      17    H12     18.577669   20.438315   22.790634 H          1 MOL1         0.1036
@<TRIPOS>BOND
    1     1     2    1
    2     1     3    1
    3     1     4    1
    4     1     5    1
    5     5     6    1
    6     5     7    1
    7     5     8    1
    8     8     9    1
    9     8    10    1
   10     8    11    1
   11    11    12    1
   12    11    13    1
   13    11    14    1
   14    14    15    1
   15    14    16    1
   16    14    17    1
@<TRIPOS>SUBSTRUCTURE
       1 MOL1            1 RESIDUE      1      MOL     
@<SCITEGIC>MOL_PROPERTY
VConf Rank
SciTegic.value.IntegerValue
848

@<SCITEGIC>MOL_PROPERTY
Conf_Id
SciTegic.value.IntegerValue
36

@<SCITEGIC>MOL_PROPERTY
Delta U+W
SciTegic.value.DoubleValue
0.275

@<SCITEGIC>MOL_PROPERTY
U+W
SciTegic.value.DoubleValue
-15.590

@<SCITEGIC>MOL_PROPERTY
Grad RMS
SciTegic.value.DoubleValue
0.000000

@<SCITEGIC>MOL_PROPERTY
U
SciTegic.value.DoubleValue
45.174

@<SCITEGIC>MOL_PROPERTY
W
SciTegic.value.DoubleValue
-60.765

@<SCITEGIC>MOL_PROPERTY
W(PB)
SciTegic.value.DoubleValue
-62.518

@<SCITEGIC>MOL_PROPERTY
W(SA)
SciTegic.value.DoubleValue
1.754

@<SCITEGIC>MOL_PROPERTY
Valence
SciTegic.value.DoubleValue
1.161

@<SCITEGIC>MOL_PROPERTY
Coulomb
SciTegic.value.DoubleValue
43.789

@<SCITEGIC>MOL_PROPERTY
VdW
SciTegic.value.DoubleValue
0.224

@<SCITEGIC>MOL_PROPERTY
VdW6
SciTegic.value.DoubleValue
-2.897

@<SCITEGIC>MOL_PROPERTY
VdW12
SciTegic.value.DoubleValue
3.121

@<SCITEGIC>MOL_PROPERTY
Bond
SciTegic.value.DoubleValue
0.100

@<SCITEGIC>MOL_PROPERTY
Angle
SciTegic.value.DoubleValue
0.500

@<SCITEGIC>MOL_PROPERTY
Pdih
SciTegic.value.DoubleValue
0.561

@<SCITEGIC>MOL_PROPERTY
Idih
SciTegic.value.DoubleValue
0.000

@<SCITEGIC>MOL_PROPERTY
Tether
SciTegic.value.DoubleValue
0.000

@<TRIPOS>MOLECULE
guest-1_confgen4.mol2 : confsearch ligand conformer 849
          17          16           1
SMALL
USER_CHARGES
 
@<TRIPOS>ATOM
       1    N1      19.215967   17.779178   20.387616 N.4        1 MOL1        -0.5891
       2    H1      19.006388   18.744362   20.120518 H          1 MOL1         0.3726
       3    H2      18.374517   17.400129   20.832323 H          1 MOL1         0.3726
       4    H3      19.358563   17.249776   19.521462 H          1 MOL1         0.3726
       5    C1      20.422274   17.698473   21.303225 C.3        1 MOL1         0.0314
       6    H4      21.299789   18.051316   20.754798 H          1 MOL1         0.0999
       7    H5      20.574096   16.641804   21.539738 H          1 MOL1         0.0999
       8    C2      20.274566   18.491897   22.618624 C.3        1 MOL1        -0.1308
       9    H6      19.278112   18.324357   23.048436 H          1 MOL1         0.1025
      10    H7      20.988401   18.076410   23.342265 H          1 MOL1         0.1025
      11    C3      20.557261   20.010403   22.488519 C.3        1 MOL1        -0.1243
      12    H8      21.580037   20.165444   22.117151 H          1 MOL1         0.1025
      13    H9      20.528233   20.455085   23.493210 H          1 MOL1         0.1025
      14    C4      19.560373   20.770883   21.584766 C.3        1 MOL1        -0.2258
      15    H10     19.695713   20.510773   20.528498 H          1 MOL1         0.1036
      16    H11     19.717099   21.853887   21.672480 H          1 MOL1         0.1036
      17    H12     18.521808   20.560540   21.871632 H          1 MOL1         0.1036
@<TRIPOS>BOND
    1     1     2    1
    2     1     3    1
    3     1     4    1
    4     1     5    1
    5     5     6    1
    6     5     7    1
    7     5     8    1
    8     8     9    1
    9     8    10    1
   10     8    11    1
   11    11    12    1
   12    11    13    1
   13    11    14    1
   14    14    15    1
   15    14    16    1
   16    14    17    1
@<TRIPOS>SUBSTRUCTURE
       1 MOL1            1 RESIDUE      1      MOL     
@<SCITEGIC>MOL_PROPERTY
VConf Rank
SciTegic.value.IntegerValue
849

@<SCITEGIC>MOL_PROPERTY
Conf_Id
SciTegic.value.IntegerValue
19

@<SCITEGIC>MOL_PROPERTY
Delta U+W
SciTegic.value.DoubleValue
2.662

@<SCITEGIC>MOL_PROPERTY
U+W
SciTegic.value.DoubleValue
-13.203

@<SCITEGIC>MOL_PROPERTY
Grad RMS
SciTegic.value.DoubleValue
0.000000

@<SCITEGIC>MOL_PROPERTY
U
SciTegic.value.DoubleValue
47.423

@<SCITEGIC>MOL_PROPERTY
W
SciTegic.value.DoubleValue
-60.626

@<SCITEGIC>MOL_PROPERTY
W(PB)
SciTegic.value.DoubleValue
-62.328

@<SCITEGIC>MOL_PROPERTY
W(SA)
SciTegic.value.DoubleValue
1.702

@<SCITEGIC>MOL_PROPERTY
Valence
SciTegic.value.DoubleValue
2.414

@<SCITEGIC>MOL_PROPERTY
Coulomb
SciTegic.value.DoubleValue
44.831

@<SCITEGIC>MOL_PROPERTY
VdW
SciTegic.value.DoubleValue
0.178

@<SCITEGIC>MOL_PROPERTY
VdW6
SciTegic.value.DoubleValue
-3.743

@<SCITEGIC>MOL_PROPERTY
VdW12
SciTegic.value.DoubleValue
3.921

@<SCITEGIC>MOL_PROPERTY
Bond
SciTegic.value.DoubleValue
0.138

@<SCITEGIC>MOL_PROPERTY
Angle
SciTegic.value.DoubleValue
0.941

@<SCITEGIC>MOL_PROPERTY
Pdih
SciTegic.value.DoubleValue
1.335

@<SCITEGIC>MOL_PROPERTY
Idih
SciTegic.value.DoubleValue
0.000

@<SCITEGIC>MOL_PROPERTY
Tether
SciTegic.value.DoubleValue
0.000

@<TRIPOS>MOLECULE
guest-1_confgen4.mol2 : confsearch ligand conformer 850
          17          16           1
SMALL
USER_CHARGES
 
@<TRIPOS>ATOM
       1    N1      21.237518   19.365590   20.366994 N.4        1 MOL1        -0.5891
       2    H1      22.176833   19.743281   20.206180 H          1 MOL1         0.3726
       3    H2      20.828301   19.184693   19.445420 H          1 MOL1         0.3726
       4    H3      21.351322   18.459701   20.828792 H          1 MOL1         0.3726
       5    C1      20.381997   20.311471   21.187622 C.3        1 MOL1         0.0314
       6    H4      20.310129   21.246694   20.625725 H          1 MOL1         0.0999
       7    H5      20.898807   20.521241   22.127944 H          1 MOL1         0.0999
       8    C2      18.959268   19.789270   21.478763 C.3        1 MOL1        -0.1308
       9    H6      18.327950   20.654556   21.720764 H          1 MOL1         0.1025
      10    H7      18.528488   19.346755   20.570832 H          1 MOL1         0.1025
      11    C3      18.870752   18.789570   22.660062 C.3        1 MOL1        -0.1243
      12    H8      17.810694   18.566658   22.846015 H          1 MOL1         0.1025
      13    H9      19.246229   19.266200   23.576502 H          1 MOL1         0.1025
      14    C4      19.620292   17.457971   22.427868 C.3        1 MOL1        -0.2258
      15    H10     19.336138   17.002285   21.470393 H          1 MOL1         0.1036
      16    H11     19.377341   16.740949   23.222859 H          1 MOL1         0.1036
      17    H12     20.707151   17.599960   22.443870 H          1 MOL1         0.1036
@<TRIPOS>BOND
    1     1     2    1
    2     1     3    1
    3     1     4    1
    4     1     5    1
    5     5     6    1
    6     5     7    1
    7     5     8    1
    8     8     9    1
    9     8    10    1
   10     8    11    1
   11    11    12    1
   12    11    13    1
   13    11    14    1
   14    14    15    1
   15    14    16    1
   16    14    17    1
@<TRIPOS>SUBSTRUCTURE
       1 MOL1            1 RESIDUE      1      MOL     
@<SCITEGIC>MOL_PROPERTY
VConf Rank
SciTegic.value.IntegerValue
850

@<SCITEGIC>MOL_PROPERTY
Conf_Id
SciTegic.value.IntegerValue
44

@<SCITEGIC>MOL_PROPERTY
Delta U+W
SciTegic.value.DoubleValue
2.712

@<SCITEGIC>MOL_PROPERTY
U+W
SciTegic.value.DoubleValue
-13.153

@<SCITEGIC>MOL_PROPERTY
Grad RMS
SciTegic.value.DoubleValue
0.000000

@<SCITEGIC>MOL_PROPERTY
U
SciTegic.value.DoubleValue
47.423

@<SCITEGIC>MOL_PROPERTY
W
SciTegic.value.DoubleValue
-60.576

@<SCITEGIC>MOL_PROPERTY
W(PB)
SciTegic.value.DoubleValue
-62.262

@<SCITEGIC>MOL_PROPERTY
W(SA)
SciTegic.value.DoubleValue
1.687

@<SCITEGIC>MOL_PROPERTY
Valence
SciTegic.value.DoubleValue
2.414

@<SCITEGIC>MOL_PROPERTY
Coulomb
SciTegic.value.DoubleValue
44.831

@<SCITEGIC>MOL_PROPERTY
VdW
SciTegic.value.DoubleValue
0.178

@<SCITEGIC>MOL_PROPERTY
VdW6
SciTegic.value.DoubleValue
-3.743

@<SCITEGIC>MOL_PROPERTY
VdW12
SciTegic.value.DoubleValue
3.922

@<SCITEGIC>MOL_PROPERTY
Bond
SciTegic.value.DoubleValue
0.138

@<SCITEGIC>MOL_PROPERTY
Angle
SciTegic.value.DoubleValue
0.941

@<SCITEGIC>MOL_PROPERTY
Pdih
SciTegic.value.DoubleValue
1.335

@<SCITEGIC>MOL_PROPERTY
Idih
SciTegic.value.DoubleValue
0.000

@<SCITEGIC>MOL_PROPERTY
Tether
SciTegic.value.DoubleValue
0.000

@<TRIPOS>MOLECULE
guest-1_confgen4.mol2 : confsearch ligand conformer 851
          17          16           1
SMALL
USER_CHARGES
 
@<TRIPOS>ATOM
       1    N1      20.109810   19.290593   23.560240 N.4        1 MOL1        -0.5891
       2    H1      19.143603   19.528647   23.318948 H          1 MOL1         0.3726
       3    H2      20.591413   20.167172   23.781706 H          1 MOL1         0.3726
       4    H3      20.075741   18.742805   24.425939 H          1 MOL1         0.3726
       5    C1      20.798347   18.533947   22.440749 C.3        1 MOL1         0.0314
       6    H4      20.253580   17.600616   22.276650 H          1 MOL1         0.0999
       7    H5      21.806506   18.281431   22.780437 H          1 MOL1         0.0999
       8    C2      20.887756   19.323543   21.118454 C.3        1 MOL1        -0.1308
       9    H6      21.471161   20.238946   21.284057 H          1 MOL1         0.1025
      10    H7      21.454482   18.727363   20.390996 H          1 MOL1         0.1025
      11    C3      19.511513   19.693848   20.511506 C.3        1 MOL1        -0.1243
      12    H8      19.674807   20.263254   19.585754 H          1 MOL1         0.1025
      13    H9      18.968645   20.366635   21.189228 H          1 MOL1         0.1025
      14    C4      18.637761   18.458757   20.193849 C.3        1 MOL1        -0.2258
      15    H10     19.159076   17.770404   19.516008 H          1 MOL1         0.1036
      16    H11     17.702521   18.763744   19.706738 H          1 MOL1         0.1036
      17    H12     18.371921   17.907057   21.104291 H          1 MOL1         0.1036
@<TRIPOS>BOND
    1     1     2    1
    2     1     3    1
    3     1     4    1
    4     1     5    1
    5     5     6    1
    6     5     7    1
    7     5     8    1
    8     8     9    1
    9     8    10    1
   10     8    11    1
   11    11    12    1
   12    11    13    1
   13    11    14    1
   14    14    15    1
   15    14    16    1
   16    14    17    1
@<TRIPOS>SUBSTRUCTURE
       1 MOL1            1 RESIDUE      1      MOL     
@<SCITEGIC>MOL_PROPERTY
VConf Rank
SciTegic.value.IntegerValue
851

@<SCITEGIC>MOL_PROPERTY
Conf_Id
SciTegic.value.IntegerValue
1

@<SCITEGIC>MOL_PROPERTY
Delta U+W
SciTegic.value.DoubleValue
0.685

@<SCITEGIC>MOL_PROPERTY
U+W
SciTegic.value.DoubleValue
-15.179

@<SCITEGIC>MOL_PROPERTY
Grad RMS
SciTegic.value.DoubleValue
0.000000

@<SCITEGIC>MOL_PROPERTY
U
SciTegic.value.DoubleValue
45.697

@<SCITEGIC>MOL_PROPERTY
W
SciTegic.value.DoubleValue
-60.876

@<SCITEGIC>MOL_PROPERTY
W(PB)
SciTegic.value.DoubleValue
-62.586

@<SCITEGIC>MOL_PROPERTY
W(SA)
SciTegic.value.DoubleValue
1.710

@<SCITEGIC>MOL_PROPERTY
Valence
SciTegic.value.DoubleValue
1.263

@<SCITEGIC>MOL_PROPERTY
Coulomb
SciTegic.value.DoubleValue
44.179

@<SCITEGIC>MOL_PROPERTY
VdW
SciTegic.value.DoubleValue
0.255

@<SCITEGIC>MOL_PROPERTY
VdW6
SciTegic.value.DoubleValue
-3.552

@<SCITEGIC>MOL_PROPERTY
VdW12
SciTegic.value.DoubleValue
3.807

@<SCITEGIC>MOL_PROPERTY
Bond
SciTegic.value.DoubleValue
0.125

@<SCITEGIC>MOL_PROPERTY
Angle
SciTegic.value.DoubleValue
0.616

@<SCITEGIC>MOL_PROPERTY
Pdih
SciTegic.value.DoubleValue
0.521

@<SCITEGIC>MOL_PROPERTY
Idih
SciTegic.value.DoubleValue
0.000

@<SCITEGIC>MOL_PROPERTY
Tether
SciTegic.value.DoubleValue
0.000

@<TRIPOS>MOLECULE
guest-1_confgen4.mol2 : confsearch ligand conformer 852
          17          16           1
SMALL
USER_CHARGES
 
@<TRIPOS>ATOM
       1    N1      18.054309   18.373852   21.713875 N.4        1 MOL1        -0.5891
       2    H1      17.993291   17.372877   21.504818 H          1 MOL1         0.3726
       3    H2      18.147009   18.864673   20.820035 H          1 MOL1         0.3726
       4    H3      17.152086   18.649737   22.114560 H          1 MOL1         0.3726
       5    C1      19.206264   18.687340   22.649066 C.3        1 MOL1         0.0314
       6    H4      19.022843   18.162845   23.590766 H          1 MOL1         0.0999
       7    H5      19.195444   19.761180   22.852917 H          1 MOL1         0.0999
       8    C2      20.586695   18.276638   22.096204 C.3        1 MOL1        -0.1308
       9    H6      21.346692   18.480886   22.862030 H          1 MOL1         0.1025
      10    H7      20.601145   17.190826   21.933257 H          1 MOL1         0.1025
      11    C3      20.979789   18.998716   20.783330 C.3        1 MOL1        -0.1243
      12    H8      20.279241   18.730866   19.980745 H          1 MOL1         0.1025
      13    H9      21.964831   18.633809   20.460161 H          1 MOL1         0.1025
      14    C4      21.037921   20.536349   20.932001 C.3        1 MOL1        -0.2258
      15    H10     21.382836   21.000614   19.999017 H          1 MOL1         0.1036
      16    H11     21.733622   20.829715   21.728872 H          1 MOL1         0.1036
      17    H12     20.051966   20.957119   21.166085 H          1 MOL1         0.1036
@<TRIPOS>BOND
    1     1     2    1
    2     1     3    1
    3     1     4    1
    4     1     5    1
    5     5     6    1
    6     5     7    1
    7     5     8    1
    8     8     9    1
    9     8    10    1
   10     8    11    1
   11    11    12    1
   12    11    13    1
   13    11    14    1
   14    14    15    1
   15    14    16    1
   16    14    17    1
@<TRIPOS>SUBSTRUCTURE
       1 MOL1            1 RESIDUE      1      MOL     
@<SCITEGIC>MOL_PROPERTY
VConf Rank
SciTegic.value.IntegerValue
852

@<SCITEGIC>MOL_PROPERTY
Conf_Id
SciTegic.value.IntegerValue
43

@<SCITEGIC>MOL_PROPERTY
Delta U+W
SciTegic.value.DoubleValue
0.642

@<SCITEGIC>MOL_PROPERTY
U+W
SciTegic.value.DoubleValue
-15.222

@<SCITEGIC>MOL_PROPERTY
Grad RMS
SciTegic.value.DoubleValue
0.000000

@<SCITEGIC>MOL_PROPERTY
U
SciTegic.value.DoubleValue
45.697

@<SCITEGIC>MOL_PROPERTY
W
SciTegic.value.DoubleValue
-60.919

@<SCITEGIC>MOL_PROPERTY
W(PB)
SciTegic.value.DoubleValue
-62.631

@<SCITEGIC>MOL_PROPERTY
W(SA)
SciTegic.value.DoubleValue
1.712

@<SCITEGIC>MOL_PROPERTY
Valence
SciTegic.value.DoubleValue
1.262

@<SCITEGIC>MOL_PROPERTY
Coulomb
SciTegic.value.DoubleValue
44.179

@<SCITEGIC>MOL_PROPERTY
VdW
SciTegic.value.DoubleValue
0.255

@<SCITEGIC>MOL_PROPERTY
VdW6
SciTegic.value.DoubleValue
-3.552

@<SCITEGIC>MOL_PROPERTY
VdW12
SciTegic.value.DoubleValue
3.807

@<SCITEGIC>MOL_PROPERTY
Bond
SciTegic.value.DoubleValue
0.125

@<SCITEGIC>MOL_PROPERTY
Angle
SciTegic.value.DoubleValue
0.616

@<SCITEGIC>MOL_PROPERTY
Pdih
SciTegic.value.DoubleValue
0.521

@<SCITEGIC>MOL_PROPERTY
Idih
SciTegic.value.DoubleValue
0.000

@<SCITEGIC>MOL_PROPERTY
Tether
SciTegic.value.DoubleValue
0.000

@<TRIPOS>MOLECULE
guest-1_confgen4.mol2 : confsearch ligand conformer 853
          17          16           1
SMALL
USER_CHARGES
 
@<TRIPOS>ATOM
       1    N1      21.753830   20.226676   23.016097 N.4        1 MOL1        -0.5891
       2    H1      21.130260   20.612386   23.731697 H          1 MOL1         0.3726
       3    H2      21.965980   20.985625   22.361355 H          1 MOL1         0.3726
       4    H3      22.632498   19.987199   23.486738 H          1 MOL1         0.3726
       5    C1      21.143778   19.027847   22.317525 C.3        1 MOL1         0.0314
       6    H4      20.973578   18.250624   23.067511 H          1 MOL1         0.0999
       7    H5      21.872268   18.651945   21.593976 H          1 MOL1         0.0999
       8    C2      19.821234   19.352305   21.599287 C.3        1 MOL1        -0.1308
       9    H6      19.097287   19.744016   22.326235 H          1 MOL1         0.1025
      10    H7      19.992911   20.143841   20.857675 H          1 MOL1         0.1025
      11    C3      19.234205   18.105518   20.901834 C.3        1 MOL1        -0.1243
      12    H8      19.065238   17.311661   21.643163 H          1 MOL1         0.1025
      13    H9      19.959727   17.711039   20.176348 H          1 MOL1         0.1025
      14    C4      17.907279   18.423352   20.179198 C.3        1 MOL1        -0.2258
      15    H10     17.506969   17.525501   19.690664 H          1 MOL1         0.1036
      16    H11     18.051446   19.190292   19.407041 H          1 MOL1         0.1036
      17    H12     17.149918   18.787820   20.885437 H          1 MOL1         0.1036
@<TRIPOS>BOND
    1     1     2    1
    2     1     3    1
    3     1     4    1
    4     1     5    1
    5     5     6    1
    6     5     7    1
    7     5     8    1
    8     8     9    1
    9     8    10    1
   10     8    11    1
   11    11    12    1
   12    11    13    1
   13    11    14    1
   14    14    15    1
   15    14    16    1
   16    14    17    1
@<TRIPOS>SUBSTRUCTURE
       1 MOL1            1 RESIDUE      1      MOL     
@<SCITEGIC>MOL_PROPERTY
VConf Rank
SciTegic.value.IntegerValue
853

@<SCITEGIC>MOL_PROPERTY
Conf_Id
SciTegic.value.IntegerValue
7

@<SCITEGIC>MOL_PROPERTY
Delta U+W
SciTegic.value.DoubleValue
0.000

@<SCITEGIC>MOL_PROPERTY
U+W
SciTegic.value.DoubleValue
-15.865

@<SCITEGIC>MOL_PROPERTY
Grad RMS
SciTegic.value.DoubleValue
0.000000

@<SCITEGIC>MOL_PROPERTY
U
SciTegic.value.DoubleValue
44.664

@<SCITEGIC>MOL_PROPERTY
W
SciTegic.value.DoubleValue
-60.529

@<SCITEGIC>MOL_PROPERTY
W(PB)
SciTegic.value.DoubleValue
-62.309

@<SCITEGIC>MOL_PROPERTY
W(SA)
SciTegic.value.DoubleValue
1.780

@<SCITEGIC>MOL_PROPERTY
Valence
SciTegic.value.DoubleValue
0.872

@<SCITEGIC>MOL_PROPERTY
Coulomb
SciTegic.value.DoubleValue
43.648

@<SCITEGIC>MOL_PROPERTY
VdW
SciTegic.value.DoubleValue
0.144

@<SCITEGIC>MOL_PROPERTY
VdW6
SciTegic.value.DoubleValue
-2.370

@<SCITEGIC>MOL_PROPERTY
VdW12
SciTegic.value.DoubleValue
2.515

@<SCITEGIC>MOL_PROPERTY
Bond
SciTegic.value.DoubleValue
0.080

@<SCITEGIC>MOL_PROPERTY
Angle
SciTegic.value.DoubleValue
0.376

@<SCITEGIC>MOL_PROPERTY
Pdih
SciTegic.value.DoubleValue
0.416

@<SCITEGIC>MOL_PROPERTY
Idih
SciTegic.value.DoubleValue
0.000

@<SCITEGIC>MOL_PROPERTY
Tether
SciTegic.value.DoubleValue
0.000

@<TRIPOS>MOLECULE
guest-1_confgen4.mol2 : confsearch ligand conformer 854
          17          16           1
SMALL
USER_CHARGES
 
@<TRIPOS>ATOM
       1    N1      19.659802   19.281322   19.228395 N.4        1 MOL1        -0.5891
       2    H1      20.285437   18.608816   18.774563 H          1 MOL1         0.3726
       3    H2      20.079614   20.208589   19.111860 H          1 MOL1         0.3726
       4    H3      18.786248   19.281912   18.691975 H          1 MOL1         0.3726
       5    C1      19.425263   18.943683   20.687281 C.3        1 MOL1         0.0314
       6    H4      18.950609   17.959867   20.734384 H          1 MOL1         0.0999
       7    H5      18.728257   19.680599   21.094681 H          1 MOL1         0.0999
       8    C2      20.719308   18.934390   21.523535 C.3        1 MOL1        -0.1308
       9    H6      21.427571   18.220418   21.082532 H          1 MOL1         0.1025
      10    H7      21.196900   19.922025   21.474851 H          1 MOL1         0.1025
      11    C3      20.471871   18.550266   23.001111 C.3        1 MOL1        -0.1243
      12    H8      21.438796   18.483997   23.519422 H          1 MOL1         0.1025
      13    H9      20.024308   17.547689   23.053155 H          1 MOL1         0.1025
      14    C4      19.569283   19.561017   23.745203 C.3        1 MOL1        -0.2258
      15    H10     19.991519   20.573468   23.702952 H          1 MOL1         0.1036
      16    H11     19.470819   19.283326   24.802652 H          1 MOL1         0.1036
      17    H12     18.559777   19.592389   23.316246 H          1 MOL1         0.1036
@<TRIPOS>BOND
    1     1     2    1
    2     1     3    1
    3     1     4    1
    4     1     5    1
    5     5     6    1
    6     5     7    1
    7     5     8    1
    8     8     9    1
    9     8    10    1
   10     8    11    1
   11    11    12    1
   12    11    13    1
   13    11    14    1
   14    14    15    1
   15    14    16    1
   16    14    17    1
@<TRIPOS>SUBSTRUCTURE
       1 MOL1            1 RESIDUE      1      MOL     
@<SCITEGIC>MOL_PROPERTY
VConf Rank
SciTegic.value.IntegerValue
854

@<SCITEGIC>MOL_PROPERTY
Conf_Id
SciTegic.value.IntegerValue
36

@<SCITEGIC>MOL_PROPERTY
Delta U+W
SciTegic.value.DoubleValue
0.275

@<SCITEGIC>MOL_PROPERTY
U+W
SciTegic.value.DoubleValue
-15.590

@<SCITEGIC>MOL_PROPERTY
Grad RMS
SciTegic.value.DoubleValue
0.000000

@<SCITEGIC>MOL_PROPERTY
U
SciTegic.value.DoubleValue
45.174

@<SCITEGIC>MOL_PROPERTY
W
SciTegic.value.DoubleValue
-60.765

@<SCITEGIC>MOL_PROPERTY
W(PB)
SciTegic.value.DoubleValue
-62.518

@<SCITEGIC>MOL_PROPERTY
W(SA)
SciTegic.value.DoubleValue
1.754

@<SCITEGIC>MOL_PROPERTY
Valence
SciTegic.value.DoubleValue
1.161

@<SCITEGIC>MOL_PROPERTY
Coulomb
SciTegic.value.DoubleValue
43.789

@<SCITEGIC>MOL_PROPERTY
VdW
SciTegic.value.DoubleValue
0.224

@<SCITEGIC>MOL_PROPERTY
VdW6
SciTegic.value.DoubleValue
-2.897

@<SCITEGIC>MOL_PROPERTY
VdW12
SciTegic.value.DoubleValue
3.121

@<SCITEGIC>MOL_PROPERTY
Bond
SciTegic.value.DoubleValue
0.100

@<SCITEGIC>MOL_PROPERTY
Angle
SciTegic.value.DoubleValue
0.500

@<SCITEGIC>MOL_PROPERTY
Pdih
SciTegic.value.DoubleValue
0.561

@<SCITEGIC>MOL_PROPERTY
Idih
SciTegic.value.DoubleValue
0.000

@<SCITEGIC>MOL_PROPERTY
Tether
SciTegic.value.DoubleValue
0.000

@<TRIPOS>MOLECULE
guest-1_confgen4.mol2 : confsearch ligand conformer 855
          17          16           1
SMALL
USER_CHARGES
 
@<TRIPOS>ATOM
       1    N1      20.446423   20.707547   21.113754 N.4        1 MOL1        -0.5891
       2    H1      19.439781   20.569383   20.993641 H          1 MOL1         0.3726
       3    H2      20.874722   20.624075   20.186893 H          1 MOL1         0.3726
       4    H3      20.584508   21.676401   21.418840 H          1 MOL1         0.3726
       5    C1      21.036426   19.716465   22.098479 C.3        1 MOL1         0.0314
       6    H4      20.593253   19.896713   23.081541 H          1 MOL1         0.0999
       7    H5      22.106453   19.931041   22.165827 H          1 MOL1         0.0999
       8    C2      20.844244   18.237416   21.702129 C.3        1 MOL1        -0.1308
       9    H6      21.057289   18.104288   20.633196 H          1 MOL1         0.1025
      10    H7      21.600642   17.646724   22.235789 H          1 MOL1         0.1025
      11    C3      19.451024   17.654330   22.050916 C.3        1 MOL1        -0.1243
      12    H8      19.276407   17.736307   23.132956 H          1 MOL1         0.1025
      13    H9      19.459750   16.578691   21.825274 H          1 MOL1         0.1025
      14    C4      18.275819   18.307552   21.288632 C.3        1 MOL1        -0.2258
      15    H10     18.091350   19.331287   21.634483 H          1 MOL1         0.1036
      16    H11     17.351342   17.739581   21.455690 H          1 MOL1         0.1036
      17    H12     18.463766   18.326916   20.207219 H          1 MOL1         0.1036
@<TRIPOS>BOND
    1     1     2    1
    2     1     3    1
    3     1     4    1
    4     1     5    1
    5     5     6    1
    6     5     7    1
    7     5     8    1
    8     8     9    1
    9     8    10    1
   10     8    11    1
   11    11    12    1
   12    11    13    1
   13    11    14    1
   14    14    15    1
   15    14    16    1
   16    14    17    1
@<TRIPOS>SUBSTRUCTURE
       1 MOL1            1 RESIDUE      1      MOL     
@<SCITEGIC>MOL_PROPERTY
VConf Rank
SciTegic.value.IntegerValue
855

@<SCITEGIC>MOL_PROPERTY
Conf_Id
SciTegic.value.IntegerValue
19

@<SCITEGIC>MOL_PROPERTY
Delta U+W
SciTegic.value.DoubleValue
2.662

@<SCITEGIC>MOL_PROPERTY
U+W
SciTegic.value.DoubleValue
-13.203

@<SCITEGIC>MOL_PROPERTY
Grad RMS
SciTegic.value.DoubleValue
0.000000

@<SCITEGIC>MOL_PROPERTY
U
SciTegic.value.DoubleValue
47.423

@<SCITEGIC>MOL_PROPERTY
W
SciTegic.value.DoubleValue
-60.626

@<SCITEGIC>MOL_PROPERTY
W(PB)
SciTegic.value.DoubleValue
-62.328

@<SCITEGIC>MOL_PROPERTY
W(SA)
SciTegic.value.DoubleValue
1.702

@<SCITEGIC>MOL_PROPERTY
Valence
SciTegic.value.DoubleValue
2.414

@<SCITEGIC>MOL_PROPERTY
Coulomb
SciTegic.value.DoubleValue
44.831

@<SCITEGIC>MOL_PROPERTY
VdW
SciTegic.value.DoubleValue
0.178

@<SCITEGIC>MOL_PROPERTY
VdW6
SciTegic.value.DoubleValue
-3.743

@<SCITEGIC>MOL_PROPERTY
VdW12
SciTegic.value.DoubleValue
3.921

@<SCITEGIC>MOL_PROPERTY
Bond
SciTegic.value.DoubleValue
0.138

@<SCITEGIC>MOL_PROPERTY
Angle
SciTegic.value.DoubleValue
0.941

@<SCITEGIC>MOL_PROPERTY
Pdih
SciTegic.value.DoubleValue
1.335

@<SCITEGIC>MOL_PROPERTY
Idih
SciTegic.value.DoubleValue
0.000

@<SCITEGIC>MOL_PROPERTY
Tether
SciTegic.value.DoubleValue
0.000

@<TRIPOS>MOLECULE
guest-1_confgen4.mol2 : confsearch ligand conformer 856
          17          16           1
SMALL
USER_CHARGES
 
@<TRIPOS>ATOM
       1    N1      21.438620   19.226275   22.600558 N.4        1 MOL1        -0.5891
       2    H1      21.973057   18.894864   23.410105 H          1 MOL1         0.3726
       3    H2      21.897110   20.081365   22.271790 H          1 MOL1         0.3726
       4    H3      21.543394   18.525712   21.862265 H          1 MOL1         0.3726
       5    C1      19.981396   19.465356   22.946068 C.3        1 MOL1         0.0314
       6    H4      19.959779   20.222324   23.734781 H          1 MOL1         0.0999
       7    H5      19.564080   18.540734   23.353775 H          1 MOL1         0.0999
       8    C2      19.119543   19.949374   21.760932 C.3        1 MOL1        -0.1308
       9    H6      18.229854   20.443339   22.173602 H          1 MOL1         0.1025
      10    H7      19.657888   20.721726   21.195789 H          1 MOL1         0.1025
      11    C3      18.641047   18.821539   20.811335 C.3        1 MOL1        -0.1243
      12    H8      17.955248   19.259172   20.072317 H          1 MOL1         0.1025
      13    H9      18.049844   18.087918   21.377287 H          1 MOL1         0.1025
      14    C4      19.778351   18.095230   20.057748 C.3        1 MOL1        -0.2258
      15    H10     20.445233   18.809786   19.557917 H          1 MOL1         0.1036
      16    H11     19.362138   17.433288   19.287194 H          1 MOL1         0.1036
      17    H12     20.372628   17.468844   20.733141 H          1 MOL1         0.1036
@<TRIPOS>BOND
    1     1     2    1
    2     1     3    1
    3     1     4    1
    4     1     5    1
    5     5     6    1
    6     5     7    1
    7     5     8    1
    8     8     9    1
    9     8    10    1
   10     8    11    1
   11    11    12    1
   12    11    13    1
   13    11    14    1
   14    14    15    1
   15    14    16    1
   16    14    17    1
@<TRIPOS>SUBSTRUCTURE
       1 MOL1            1 RESIDUE      1      MOL     
@<SCITEGIC>MOL_PROPERTY
VConf Rank
SciTegic.value.IntegerValue
856

@<SCITEGIC>MOL_PROPERTY
Conf_Id
SciTegic.value.IntegerValue
44

@<SCITEGIC>MOL_PROPERTY
Delta U+W
SciTegic.value.DoubleValue
2.712

@<SCITEGIC>MOL_PROPERTY
U+W
SciTegic.value.DoubleValue
-13.153

@<SCITEGIC>MOL_PROPERTY
Grad RMS
SciTegic.value.DoubleValue
0.000000

@<SCITEGIC>MOL_PROPERTY
U
SciTegic.value.DoubleValue
47.423

@<SCITEGIC>MOL_PROPERTY
W
SciTegic.value.DoubleValue
-60.576

@<SCITEGIC>MOL_PROPERTY
W(PB)
SciTegic.value.DoubleValue
-62.262

@<SCITEGIC>MOL_PROPERTY
W(SA)
SciTegic.value.DoubleValue
1.687

@<SCITEGIC>MOL_PROPERTY
Valence
SciTegic.value.DoubleValue
2.414

@<SCITEGIC>MOL_PROPERTY
Coulomb
SciTegic.value.DoubleValue
44.831

@<SCITEGIC>MOL_PROPERTY
VdW
SciTegic.value.DoubleValue
0.178

@<SCITEGIC>MOL_PROPERTY
VdW6
SciTegic.value.DoubleValue
-3.743

@<SCITEGIC>MOL_PROPERTY
VdW12
SciTegic.value.DoubleValue
3.922

@<SCITEGIC>MOL_PROPERTY
Bond
SciTegic.value.DoubleValue
0.138

@<SCITEGIC>MOL_PROPERTY
Angle
SciTegic.value.DoubleValue
0.941

@<SCITEGIC>MOL_PROPERTY
Pdih
SciTegic.value.DoubleValue
1.335

@<SCITEGIC>MOL_PROPERTY
Idih
SciTegic.value.DoubleValue
0.000

@<SCITEGIC>MOL_PROPERTY
Tether
SciTegic.value.DoubleValue
0.000

@<TRIPOS>MOLECULE
guest-1_confgen4.mol2 : confsearch ligand conformer 857
          17          16           1
SMALL
USER_CHARGES
 
@<TRIPOS>ATOM
       1    N1      20.423090   19.382487   23.489463 N.4        1 MOL1        -0.5891
       2    H1      19.437167   19.106093   23.486501 H          1 MOL1         0.3726
       3    H2      20.455723   20.385817   23.693532 H          1 MOL1         0.3726
       4    H3      20.865764   18.903416   24.280158 H          1 MOL1         0.3726
       5    C1      21.103759   19.049888   22.175719 C.3        1 MOL1         0.0314
       6    H4      21.059126   17.966843   22.034917 H          1 MOL1         0.0999
       7    H5      22.155372   19.336062   22.263770 H          1 MOL1         0.0999
       8    C2      20.481912   19.759275   20.955065 C.3        1 MOL1        -0.1308
       9    H6      20.568117   20.845949   21.087192 H          1 MOL1         0.1025
      10    H7      21.075322   19.511614   20.064934 H          1 MOL1         0.1025
      11    C3      18.999916   19.388624   20.698426 C.3        1 MOL1        -0.1243
      12    H8      18.641245   19.949641   19.824058 H          1 MOL1         0.1025
      13    H9      18.377608   19.713857   21.543180 H          1 MOL1         0.1025
      14    C4      18.788348   17.878030   20.447146 C.3        1 MOL1        -0.2258
      15    H10     19.400042   17.528588   19.605250 H          1 MOL1         0.1036
      16    H11     17.737636   17.671304   20.205826 H          1 MOL1         0.1036
      17    H12     19.048494   17.281275   21.330411 H          1 MOL1         0.1036
@<TRIPOS>BOND
    1     1     2    1
    2     1     3    1
    3     1     4    1
    4     1     5    1
    5     5     6    1
    6     5     7    1
    7     5     8    1
    8     8     9    1
    9     8    10    1
   10     8    11    1
   11    11    12    1
   12    11    13    1
   13    11    14    1
   14    14    15    1
   15    14    16    1
   16    14    17    1
@<TRIPOS>SUBSTRUCTURE
       1 MOL1            1 RESIDUE      1      MOL     
@<SCITEGIC>MOL_PROPERTY
VConf Rank
SciTegic.value.IntegerValue
857

@<SCITEGIC>MOL_PROPERTY
Conf_Id
SciTegic.value.IntegerValue
1

@<SCITEGIC>MOL_PROPERTY
Delta U+W
SciTegic.value.DoubleValue
0.685

@<SCITEGIC>MOL_PROPERTY
U+W
SciTegic.value.DoubleValue
-15.179

@<SCITEGIC>MOL_PROPERTY
Grad RMS
SciTegic.value.DoubleValue
0.000000

@<SCITEGIC>MOL_PROPERTY
U
SciTegic.value.DoubleValue
45.697

@<SCITEGIC>MOL_PROPERTY
W
SciTegic.value.DoubleValue
-60.876

@<SCITEGIC>MOL_PROPERTY
W(PB)
SciTegic.value.DoubleValue
-62.586

@<SCITEGIC>MOL_PROPERTY
W(SA)
SciTegic.value.DoubleValue
1.710

@<SCITEGIC>MOL_PROPERTY
Valence
SciTegic.value.DoubleValue
1.263

@<SCITEGIC>MOL_PROPERTY
Coulomb
SciTegic.value.DoubleValue
44.179

@<SCITEGIC>MOL_PROPERTY
VdW
SciTegic.value.DoubleValue
0.255

@<SCITEGIC>MOL_PROPERTY
VdW6
SciTegic.value.DoubleValue
-3.552

@<SCITEGIC>MOL_PROPERTY
VdW12
SciTegic.value.DoubleValue
3.807

@<SCITEGIC>MOL_PROPERTY
Bond
SciTegic.value.DoubleValue
0.125

@<SCITEGIC>MOL_PROPERTY
Angle
SciTegic.value.DoubleValue
0.616

@<SCITEGIC>MOL_PROPERTY
Pdih
SciTegic.value.DoubleValue
0.521

@<SCITEGIC>MOL_PROPERTY
Idih
SciTegic.value.DoubleValue
0.000

@<SCITEGIC>MOL_PROPERTY
Tether
SciTegic.value.DoubleValue
0.000

@<TRIPOS>MOLECULE
guest-1_confgen4.mol2 : confsearch ligand conformer 858
          17          16           1
SMALL
USER_CHARGES
 
@<TRIPOS>ATOM
       1    N1      21.474392   18.841301   20.369955 N.4        1 MOL1        -0.5891
       2    H1      21.313901   19.331637   19.484974 H          1 MOL1         0.3726
       3    H2      20.949061   17.963341   20.329171 H          1 MOL1         0.3726
       4    H3      22.468765   18.594013   20.397104 H          1 MOL1         0.3726
       5    C1      21.069740   19.683149   21.564696 C.3        1 MOL1         0.0314
       6    H4      21.693418   20.581237   21.565760 H          1 MOL1         0.0999
       7    H5      21.293678   19.115383   22.471503 H          1 MOL1         0.0999
       8    C2      19.582759   20.094000   21.562041 C.3        1 MOL1        -0.1308
       9    H6      19.398023   20.749783   22.423217 H          1 MOL1         0.1025
      10    H7      19.377347   20.698025   20.668336 H          1 MOL1         0.1025
      11    C3      18.598778   18.898652   21.611871 C.3        1 MOL1        -0.1243
      12    H8      18.707937   18.281861   20.709482 H          1 MOL1         0.1025
      13    H9      17.570409   19.285895   21.591763 H          1 MOL1         0.1025
      14    C4      18.779183   18.017900   22.869459 C.3        1 MOL1        -0.2258
      15    H10     18.021058   17.224477   22.895837 H          1 MOL1         0.1036
      16    H11     18.673290   18.612503   23.786138 H          1 MOL1         0.1036
      17    H12     19.764249   17.534883   22.886433 H          1 MOL1         0.1036
@<TRIPOS>BOND
    1     1     2    1
    2     1     3    1
    3     1     4    1
    4     1     5    1
    5     5     6    1
    6     5     7    1
    7     5     8    1
    8     8     9    1
    9     8    10    1
   10     8    11    1
   11    11    12    1
   12    11    13    1
   13    11    14    1
   14    14    15    1
   15    14    16    1
   16    14    17    1
@<TRIPOS>SUBSTRUCTURE
       1 MOL1            1 RESIDUE      1      MOL     
@<SCITEGIC>MOL_PROPERTY
VConf Rank
SciTegic.value.IntegerValue
858

@<SCITEGIC>MOL_PROPERTY
Conf_Id
SciTegic.value.IntegerValue
43

@<SCITEGIC>MOL_PROPERTY
Delta U+W
SciTegic.value.DoubleValue
0.642

@<SCITEGIC>MOL_PROPERTY
U+W
SciTegic.value.DoubleValue
-15.222

@<SCITEGIC>MOL_PROPERTY
Grad RMS
SciTegic.value.DoubleValue
0.000000

@<SCITEGIC>MOL_PROPERTY
U
SciTegic.value.DoubleValue
45.697

@<SCITEGIC>MOL_PROPERTY
W
SciTegic.value.DoubleValue
-60.919

@<SCITEGIC>MOL_PROPERTY
W(PB)
SciTegic.value.DoubleValue
-62.631

@<SCITEGIC>MOL_PROPERTY
W(SA)
SciTegic.value.DoubleValue
1.712

@<SCITEGIC>MOL_PROPERTY
Valence
SciTegic.value.DoubleValue
1.262

@<SCITEGIC>MOL_PROPERTY
Coulomb
SciTegic.value.DoubleValue
44.179

@<SCITEGIC>MOL_PROPERTY
VdW
SciTegic.value.DoubleValue
0.255

@<SCITEGIC>MOL_PROPERTY
VdW6
SciTegic.value.DoubleValue
-3.552

@<SCITEGIC>MOL_PROPERTY
VdW12
SciTegic.value.DoubleValue
3.807

@<SCITEGIC>MOL_PROPERTY
Bond
SciTegic.value.DoubleValue
0.125

@<SCITEGIC>MOL_PROPERTY
Angle
SciTegic.value.DoubleValue
0.616

@<SCITEGIC>MOL_PROPERTY
Pdih
SciTegic.value.DoubleValue
0.521

@<SCITEGIC>MOL_PROPERTY
Idih
SciTegic.value.DoubleValue
0.000

@<SCITEGIC>MOL_PROPERTY
Tether
SciTegic.value.DoubleValue
0.000

@<TRIPOS>MOLECULE
guest-1_confgen4.mol2 : confsearch ligand conformer 859
          17          16           1
SMALL
USER_CHARGES
 
@<TRIPOS>ATOM
       1    N1      22.303417   19.251882   20.581230 N.4        1 MOL1        -0.5891
       2    H1      22.027861   19.164482   19.598313 H          1 MOL1         0.3726
       3    H2      22.652256   18.335518   20.878360 H          1 MOL1         0.3726
       4    H3      23.100707   19.895662   20.609232 H          1 MOL1         0.3726
       5    C1      21.159418   19.733447   21.451126 C.3        1 MOL1         0.0314
       6    H4      20.860520   20.724086   21.097833 H          1 MOL1         0.0999
       7    H5      21.531959   19.832727   22.474298 H          1 MOL1         0.0999
       8    C2      19.943784   18.788912   21.432461 C.3        1 MOL1        -0.1308
       9    H6      19.582008   18.679450   20.401381 H          1 MOL1         0.1025
      10    H7      20.251099   17.791208   21.773246 H          1 MOL1         0.1025
      11    C3      18.802675   19.315772   22.330130 C.3        1 MOL1        -0.1243
      12    H8      18.496876   20.315858   21.991544 H          1 MOL1         0.1025
      13    H9      19.165118   19.428632   23.361742 H          1 MOL1         0.1025
      14    C4      17.579699   18.373385   22.316354 C.3        1 MOL1        -0.2258
      15    H10     16.780954   18.765092   22.959488 H          1 MOL1         0.1036
      16    H11     17.846764   17.373672   22.683039 H          1 MOL1         0.1036
      17    H12     17.173290   18.267859   21.302006 H          1 MOL1         0.1036
@<TRIPOS>BOND
    1     1     2    1
    2     1     3    1
    3     1     4    1
    4     1     5    1
    5     5     6    1
    6     5     7    1
    7     5     8    1
    8     8     9    1
    9     8    10    1
   10     8    11    1
   11    11    12    1
   12    11    13    1
   13    11    14    1
   14    14    15    1
   15    14    16    1
   16    14    17    1
@<TRIPOS>SUBSTRUCTURE
       1 MOL1            1 RESIDUE      1      MOL     
@<SCITEGIC>MOL_PROPERTY
VConf Rank
SciTegic.value.IntegerValue
859

@<SCITEGIC>MOL_PROPERTY
Conf_Id
SciTegic.value.IntegerValue
7

@<SCITEGIC>MOL_PROPERTY
Delta U+W
SciTegic.value.DoubleValue
0.000

@<SCITEGIC>MOL_PROPERTY
U+W
SciTegic.value.DoubleValue
-15.865

@<SCITEGIC>MOL_PROPERTY
Grad RMS
SciTegic.value.DoubleValue
0.000000

@<SCITEGIC>MOL_PROPERTY
U
SciTegic.value.DoubleValue
44.664

@<SCITEGIC>MOL_PROPERTY
W
SciTegic.value.DoubleValue
-60.529

@<SCITEGIC>MOL_PROPERTY
W(PB)
SciTegic.value.DoubleValue
-62.309

@<SCITEGIC>MOL_PROPERTY
W(SA)
SciTegic.value.DoubleValue
1.780

@<SCITEGIC>MOL_PROPERTY
Valence
SciTegic.value.DoubleValue
0.872

@<SCITEGIC>MOL_PROPERTY
Coulomb
SciTegic.value.DoubleValue
43.648

@<SCITEGIC>MOL_PROPERTY
VdW
SciTegic.value.DoubleValue
0.144

@<SCITEGIC>MOL_PROPERTY
VdW6
SciTegic.value.DoubleValue
-2.370

@<SCITEGIC>MOL_PROPERTY
VdW12
SciTegic.value.DoubleValue
2.515

@<SCITEGIC>MOL_PROPERTY
Bond
SciTegic.value.DoubleValue
0.080

@<SCITEGIC>MOL_PROPERTY
Angle
SciTegic.value.DoubleValue
0.376

@<SCITEGIC>MOL_PROPERTY
Pdih
SciTegic.value.DoubleValue
0.416

@<SCITEGIC>MOL_PROPERTY
Idih
SciTegic.value.DoubleValue
0.000

@<SCITEGIC>MOL_PROPERTY
Tether
SciTegic.value.DoubleValue
0.000

@<TRIPOS>MOLECULE
guest-1_confgen4.mol2 : confsearch ligand conformer 860
          17          16           1
SMALL
USER_CHARGES
 
@<TRIPOS>ATOM
       1    N1      22.246738   19.327406   20.987693 N.4        1 MOL1        -0.5891
       2    H1      22.293583   19.559264   19.990851 H          1 MOL1         0.3726
       3    H2      22.515908   18.343238   21.080465 H          1 MOL1         0.3726
       4    H3      22.973911   19.878852   21.454567 H          1 MOL1         0.3726
       5    C1      20.873519   19.597594   21.569608 C.3        1 MOL1         0.0314
       6    H4      20.665922   20.665839   21.463945 H          1 MOL1         0.0999
       7    H5      20.907610   19.358663   22.635717 H          1 MOL1         0.0999
       8    C2      19.755692   18.783591   20.890035 C.3        1 MOL1        -0.1308
       9    H6      19.756161   19.000599   19.813567 H          1 MOL1         0.1025
      10    H7      19.965081   17.710704   20.994716 H          1 MOL1         0.1025
      11    C3      18.355014   19.097221   21.466007 C.3        1 MOL1        -0.1243
      12    H8      17.599701   18.547421   20.887039 H          1 MOL1         0.1025
      13    H9      18.130002   20.164732   21.331945 H          1 MOL1         0.1025
      14    C4      18.217649   18.721216   22.959228 C.3        1 MOL1        -0.2258
      15    H10     18.443462   17.659257   23.121634 H          1 MOL1         0.1036
      16    H11     17.193189   18.902867   23.309217 H          1 MOL1         0.1036
      17    H12     18.892241   19.315310   23.588567 H          1 MOL1         0.1036
@<TRIPOS>BOND
    1     1     2    1
    2     1     3    1
    3     1     4    1
    4     1     5    1
    5     5     6    1
    6     5     7    1
    7     5     8    1
    8     8     9    1
    9     8    10    1
   10     8    11    1
   11    11    12    1
   12    11    13    1
   13    11    14    1
   14    14    15    1
   15    14    16    1
   16    14    17    1
@<TRIPOS>SUBSTRUCTURE
       1 MOL1            1 RESIDUE      1      MOL     
@<SCITEGIC>MOL_PROPERTY
VConf Rank
SciTegic.value.IntegerValue
860

@<SCITEGIC>MOL_PROPERTY
Conf_Id
SciTegic.value.IntegerValue
36

@<SCITEGIC>MOL_PROPERTY
Delta U+W
SciTegic.value.DoubleValue
0.275

@<SCITEGIC>MOL_PROPERTY
U+W
SciTegic.value.DoubleValue
-15.590

@<SCITEGIC>MOL_PROPERTY
Grad RMS
SciTegic.value.DoubleValue
0.000000

@<SCITEGIC>MOL_PROPERTY
U
SciTegic.value.DoubleValue
45.174

@<SCITEGIC>MOL_PROPERTY
W
SciTegic.value.DoubleValue
-60.765

@<SCITEGIC>MOL_PROPERTY
W(PB)
SciTegic.value.DoubleValue
-62.518

@<SCITEGIC>MOL_PROPERTY
W(SA)
SciTegic.value.DoubleValue
1.754

@<SCITEGIC>MOL_PROPERTY
Valence
SciTegic.value.DoubleValue
1.161

@<SCITEGIC>MOL_PROPERTY
Coulomb
SciTegic.value.DoubleValue
43.789

@<SCITEGIC>MOL_PROPERTY
VdW
SciTegic.value.DoubleValue
0.224

@<SCITEGIC>MOL_PROPERTY
VdW6
SciTegic.value.DoubleValue
-2.897

@<SCITEGIC>MOL_PROPERTY
VdW12
SciTegic.value.DoubleValue
3.121

@<SCITEGIC>MOL_PROPERTY
Bond
SciTegic.value.DoubleValue
0.100

@<SCITEGIC>MOL_PROPERTY
Angle
SciTegic.value.DoubleValue
0.500

@<SCITEGIC>MOL_PROPERTY
Pdih
SciTegic.value.DoubleValue
0.561

@<SCITEGIC>MOL_PROPERTY
Idih
SciTegic.value.DoubleValue
0.000

@<SCITEGIC>MOL_PROPERTY
Tether
SciTegic.value.DoubleValue
0.000

@<TRIPOS>MOLECULE
guest-1_confgen4.mol2 : confsearch ligand conformer 861
          17          16           1
SMALL
USER_CHARGES
 
@<TRIPOS>ATOM
       1    N1      18.902825   19.166015   23.134679 N.4        1 MOL1        -0.5891
       2    H1      18.640224   19.856233   22.426523 H          1 MOL1         0.3726
       3    H2      19.492779   19.647158   23.820197 H          1 MOL1         0.3726
       4    H3      18.044064   18.891247   23.622382 H          1 MOL1         0.3726
       5    C1      19.609941   17.972616   22.521640 C.3        1 MOL1         0.0314
       6    H4      18.912730   17.460575   21.853050 H          1 MOL1         0.0999
       7    H5      19.855087   17.290826   23.340543 H          1 MOL1         0.0999
       8    C2      20.903165   18.325433   21.756980 C.3        1 MOL1        -0.1308
       9    H6      21.496520   19.046208   22.335030 H          1 MOL1         0.1025
      10    H7      21.513704   17.414900   21.693595 H          1 MOL1         0.1025
      11    C3      20.675339   18.847704   20.315441 C.3        1 MOL1        -0.1243
      12    H8      20.135708   18.090745   19.729069 H          1 MOL1         0.1025
      13    H9      21.654961   18.965475   19.831232 H          1 MOL1         0.1025
      14    C4      19.921714   20.194749   20.235428 C.3        1 MOL1        -0.2258
      15    H10     18.867318   20.083043   20.513722 H          1 MOL1         0.1036
      16    H11     19.944545   20.583127   19.208882 H          1 MOL1         0.1036
      17    H12     20.382574   20.948663   20.886870 H          1 MOL1         0.1036
@<TRIPOS>BOND
    1     1     2    1
    2     1     3    1
    3     1     4    1
    4     1     5    1
    5     5     6    1
    6     5     7    1
    7     5     8    1
    8     8     9    1
    9     8    10    1
   10     8    11    1
   11    11    12    1
   12    11    13    1
   13    11    14    1
   14    14    15    1
   15    14    16    1
   16    14    17    1
@<TRIPOS>SUBSTRUCTURE
       1 MOL1            1 RESIDUE      1      MOL     
@<SCITEGIC>MOL_PROPERTY
VConf Rank
SciTegic.value.IntegerValue
861

@<SCITEGIC>MOL_PROPERTY
Conf_Id
SciTegic.value.IntegerValue
19

@<SCITEGIC>MOL_PROPERTY
Delta U+W
SciTegic.value.DoubleValue
2.662

@<SCITEGIC>MOL_PROPERTY
U+W
SciTegic.value.DoubleValue
-13.203

@<SCITEGIC>MOL_PROPERTY
Grad RMS
SciTegic.value.DoubleValue
0.000000

@<SCITEGIC>MOL_PROPERTY
U
SciTegic.value.DoubleValue
47.423

@<SCITEGIC>MOL_PROPERTY
W
SciTegic.value.DoubleValue
-60.626

@<SCITEGIC>MOL_PROPERTY
W(PB)
SciTegic.value.DoubleValue
-62.328

@<SCITEGIC>MOL_PROPERTY
W(SA)
SciTegic.value.DoubleValue
1.702

@<SCITEGIC>MOL_PROPERTY
Valence
SciTegic.value.DoubleValue
2.414

@<SCITEGIC>MOL_PROPERTY
Coulomb
SciTegic.value.DoubleValue
44.831

@<SCITEGIC>MOL_PROPERTY
VdW
SciTegic.value.DoubleValue
0.178

@<SCITEGIC>MOL_PROPERTY
VdW6
SciTegic.value.DoubleValue
-3.743

@<SCITEGIC>MOL_PROPERTY
VdW12
SciTegic.value.DoubleValue
3.921

@<SCITEGIC>MOL_PROPERTY
Bond
SciTegic.value.DoubleValue
0.138

@<SCITEGIC>MOL_PROPERTY
Angle
SciTegic.value.DoubleValue
0.941

@<SCITEGIC>MOL_PROPERTY
Pdih
SciTegic.value.DoubleValue
1.335

@<SCITEGIC>MOL_PROPERTY
Idih
SciTegic.value.DoubleValue
0.000

@<SCITEGIC>MOL_PROPERTY
Tether
SciTegic.value.DoubleValue
0.000

@<TRIPOS>MOLECULE
guest-1_confgen4.mol2 : confsearch ligand conformer 862
          17          16           1
SMALL
USER_CHARGES
 
@<TRIPOS>ATOM
       1    N1      18.903611   20.622772   21.348684 N.4        1 MOL1        -0.5891
       2    H1      18.620930   21.526304   21.741807 H          1 MOL1         0.3726
       3    H2      18.312921   20.457996   20.528067 H          1 MOL1         0.3726
       4    H3      19.864120   20.727213   21.011995 H          1 MOL1         0.3726
       5    C1      18.782447   19.502937   22.364228 C.3        1 MOL1         0.0314
       6    H4      17.732967   19.458731   22.667831 H          1 MOL1         0.0999
       7    H5      19.377650   19.764287   23.243280 H          1 MOL1         0.0999
       8    C2      19.211689   18.118006   21.835713 C.3        1 MOL1        -0.1308
       9    H6      18.743485   17.356399   22.473354 H          1 MOL1         0.1025
      10    H7      18.805654   17.958165   20.828084 H          1 MOL1         0.1025
      11    C3      20.742142   17.872404   21.845502 C.3        1 MOL1        -0.1243
      12    H8      20.927057   16.829236   21.552933 H          1 MOL1         0.1025
      13    H9      21.126047   17.973042   22.870447 H          1 MOL1         0.1025
      14    C4      21.543889   18.797636   20.902090 C.3        1 MOL1        -0.2258
      15    H10     21.124591   18.792403   19.887539 H          1 MOL1         0.1036
      16    H11     22.586166   18.459885   20.833247 H          1 MOL1         0.1036
      17    H12     21.563846   19.829428   21.271802 H          1 MOL1         0.1036
@<TRIPOS>BOND
    1     1     2    1
    2     1     3    1
    3     1     4    1
    4     1     5    1
    5     5     6    1
    6     5     7    1
    7     5     8    1
    8     8     9    1
    9     8    10    1
   10     8    11    1
   11    11    12    1
   12    11    13    1
   13    11    14    1
   14    14    15    1
   15    14    16    1
   16    14    17    1
@<TRIPOS>SUBSTRUCTURE
       1 MOL1            1 RESIDUE      1      MOL     
@<SCITEGIC>MOL_PROPERTY
VConf Rank
SciTegic.value.IntegerValue
862

@<SCITEGIC>MOL_PROPERTY
Conf_Id
SciTegic.value.IntegerValue
44

@<SCITEGIC>MOL_PROPERTY
Delta U+W
SciTegic.value.DoubleValue
2.712

@<SCITEGIC>MOL_PROPERTY
U+W
SciTegic.value.DoubleValue
-13.153

@<SCITEGIC>MOL_PROPERTY
Grad RMS
SciTegic.value.DoubleValue
0.000000

@<SCITEGIC>MOL_PROPERTY
U
SciTegic.value.DoubleValue
47.423

@<SCITEGIC>MOL_PROPERTY
W
SciTegic.value.DoubleValue
-60.576

@<SCITEGIC>MOL_PROPERTY
W(PB)
SciTegic.value.DoubleValue
-62.262

@<SCITEGIC>MOL_PROPERTY
W(SA)
SciTegic.value.DoubleValue
1.687

@<SCITEGIC>MOL_PROPERTY
Valence
SciTegic.value.DoubleValue
2.414

@<SCITEGIC>MOL_PROPERTY
Coulomb
SciTegic.value.DoubleValue
44.831

@<SCITEGIC>MOL_PROPERTY
VdW
SciTegic.value.DoubleValue
0.178

@<SCITEGIC>MOL_PROPERTY
VdW6
SciTegic.value.DoubleValue
-3.743

@<SCITEGIC>MOL_PROPERTY
VdW12
SciTegic.value.DoubleValue
3.922

@<SCITEGIC>MOL_PROPERTY
Bond
SciTegic.value.DoubleValue
0.138

@<SCITEGIC>MOL_PROPERTY
Angle
SciTegic.value.DoubleValue
0.941

@<SCITEGIC>MOL_PROPERTY
Pdih
SciTegic.value.DoubleValue
1.335

@<SCITEGIC>MOL_PROPERTY
Idih
SciTegic.value.DoubleValue
0.000

@<SCITEGIC>MOL_PROPERTY
Tether
SciTegic.value.DoubleValue
0.000

@<TRIPOS>MOLECULE
guest-1_confgen4.mol2 : confsearch ligand conformer 863
          17          16           1
SMALL
USER_CHARGES
 
@<TRIPOS>ATOM
       1    N1      21.129488   20.492064   22.205602 N.4        1 MOL1        -0.5891
       2    H1      20.218112   20.657896   22.641883 H          1 MOL1         0.3726
       3    H2      21.252782   21.205726   21.481128 H          1 MOL1         0.3726
       4    H3      21.840843   20.669251   22.922014 H          1 MOL1         0.3726
       5    C1      21.235022   19.088524   21.640982 C.3        1 MOL1         0.0314
       6    H4      21.124501   18.381146   22.466939 H          1 MOL1         0.0999
       7    H5      22.240352   18.970689   21.227502 H          1 MOL1         0.0999
       8    C2      20.193045   18.777511   20.546690 C.3        1 MOL1        -0.1308
       9    H6      20.338434   19.466703   19.704297 H          1 MOL1         0.1025
      10    H7      20.385841   17.770229   20.154241 H          1 MOL1         0.1025
      11    C3      18.724639   18.862271   21.032646 C.3        1 MOL1        -0.1243
      12    H8      18.058734   18.640938   20.186781 H          1 MOL1         0.1025
      13    H9      18.488462   19.889022   21.343545 H          1 MOL1         0.1025
      14    C4      18.411623   17.883548   22.187600 C.3        1 MOL1        -0.2258
      15    H10     18.638845   16.848683   21.900384 H          1 MOL1         0.1036
      16    H11     17.347960   17.930800   22.454727 H          1 MOL1         0.1036
      17    H12     18.989956   18.123761   23.088587 H          1 MOL1         0.1036
@<TRIPOS>BOND
    1     1     2    1
    2     1     3    1
    3     1     4    1
    4     1     5    1
    5     5     6    1
    6     5     7    1
    7     5     8    1
    8     8     9    1
    9     8    10    1
   10     8    11    1
   11    11    12    1
   12    11    13    1
   13    11    14    1
   14    14    15    1
   15    14    16    1
   16    14    17    1
@<TRIPOS>SUBSTRUCTURE
       1 MOL1            1 RESIDUE      1      MOL     
@<SCITEGIC>MOL_PROPERTY
VConf Rank
SciTegic.value.IntegerValue
863

@<SCITEGIC>MOL_PROPERTY
Conf_Id
SciTegic.value.IntegerValue
1

@<SCITEGIC>MOL_PROPERTY
Delta U+W
SciTegic.value.DoubleValue
0.685

@<SCITEGIC>MOL_PROPERTY
U+W
SciTegic.value.DoubleValue
-15.179

@<SCITEGIC>MOL_PROPERTY
Grad RMS
SciTegic.value.DoubleValue
0.000000

@<SCITEGIC>MOL_PROPERTY
U
SciTegic.value.DoubleValue
45.697

@<SCITEGIC>MOL_PROPERTY
W
SciTegic.value.DoubleValue
-60.876

@<SCITEGIC>MOL_PROPERTY
W(PB)
SciTegic.value.DoubleValue
-62.586

@<SCITEGIC>MOL_PROPERTY
W(SA)
SciTegic.value.DoubleValue
1.710

@<SCITEGIC>MOL_PROPERTY
Valence
SciTegic.value.DoubleValue
1.263

@<SCITEGIC>MOL_PROPERTY
Coulomb
SciTegic.value.DoubleValue
44.179

@<SCITEGIC>MOL_PROPERTY
VdW
SciTegic.value.DoubleValue
0.255

@<SCITEGIC>MOL_PROPERTY
VdW6
SciTegic.value.DoubleValue
-3.552

@<SCITEGIC>MOL_PROPERTY
VdW12
SciTegic.value.DoubleValue
3.807

@<SCITEGIC>MOL_PROPERTY
Bond
SciTegic.value.DoubleValue
0.125

@<SCITEGIC>MOL_PROPERTY
Angle
SciTegic.value.DoubleValue
0.616

@<SCITEGIC>MOL_PROPERTY
Pdih
SciTegic.value.DoubleValue
0.521

@<SCITEGIC>MOL_PROPERTY
Idih
SciTegic.value.DoubleValue
0.000

@<SCITEGIC>MOL_PROPERTY
Tether
SciTegic.value.DoubleValue
0.000

@<TRIPOS>MOLECULE
guest-1_confgen4.mol2 : confsearch ligand conformer 864
          17          16           1
SMALL
USER_CHARGES
 
@<TRIPOS>ATOM
       1    N1      19.261757   17.224545   22.094674 N.4        1 MOL1        -0.5891
       2    H1      18.326522   17.050470   21.714659 H          1 MOL1         0.3726
       3    H2      19.147588   17.823449   22.917309 H          1 MOL1         0.3726
       4    H3      19.620058   16.323795   22.427745 H          1 MOL1         0.3726
       5    C1      20.182562   17.852319   21.066142 C.3        1 MOL1         0.0314
       6    H4      20.287645   17.145974   20.238149 H          1 MOL1         0.0999
       7    H5      21.165780   17.982876   21.525536 H          1 MOL1         0.0999
       8    C2      19.678565   19.205217   20.522473 C.3        1 MOL1        -0.1308
       9    H6      20.370557   19.550178   19.742760 H          1 MOL1         0.1025
      10    H7      18.709877   19.056309   20.027279 H          1 MOL1         0.1025
      11    C3      19.539487   20.306139   21.603300 C.3        1 MOL1        -0.1243
      12    H8      18.781238   20.015414   22.343024 H          1 MOL1         0.1025
      13    H9      19.163418   21.222984   21.128039 H          1 MOL1         0.1025
      14    C4      20.871985   20.622470   22.320364 C.3        1 MOL1        -0.2258
      15    H10     20.740806   21.450582   23.028877 H          1 MOL1         0.1036
      16    H11     21.646961   20.917220   21.600919 H          1 MOL1         0.1036
      17    H12     21.241180   19.758097   22.886494 H          1 MOL1         0.1036
@<TRIPOS>BOND
    1     1     2    1
    2     1     3    1
    3     1     4    1
    4     1     5    1
    5     5     6    1
    6     5     7    1
    7     5     8    1
    8     8     9    1
    9     8    10    1
   10     8    11    1
   11    11    12    1
   12    11    13    1
   13    11    14    1
   14    14    15    1
   15    14    16    1
   16    14    17    1
@<TRIPOS>SUBSTRUCTURE
       1 MOL1            1 RESIDUE      1      MOL     
@<SCITEGIC>MOL_PROPERTY
VConf Rank
SciTegic.value.IntegerValue
864

@<SCITEGIC>MOL_PROPERTY
Conf_Id
SciTegic.value.IntegerValue
43

@<SCITEGIC>MOL_PROPERTY
Delta U+W
SciTegic.value.DoubleValue
0.642

@<SCITEGIC>MOL_PROPERTY
U+W
SciTegic.value.DoubleValue
-15.222

@<SCITEGIC>MOL_PROPERTY
Grad RMS
SciTegic.value.DoubleValue
0.000000

@<SCITEGIC>MOL_PROPERTY
U
SciTegic.value.DoubleValue
45.697

@<SCITEGIC>MOL_PROPERTY
W
SciTegic.value.DoubleValue
-60.919

@<SCITEGIC>MOL_PROPERTY
W(PB)
SciTegic.value.DoubleValue
-62.631

@<SCITEGIC>MOL_PROPERTY
W(SA)
SciTegic.value.DoubleValue
1.712

@<SCITEGIC>MOL_PROPERTY
Valence
SciTegic.value.DoubleValue
1.262

@<SCITEGIC>MOL_PROPERTY
Coulomb
SciTegic.value.DoubleValue
44.179

@<SCITEGIC>MOL_PROPERTY
VdW
SciTegic.value.DoubleValue
0.255

@<SCITEGIC>MOL_PROPERTY
VdW6
SciTegic.value.DoubleValue
-3.552

@<SCITEGIC>MOL_PROPERTY
VdW12
SciTegic.value.DoubleValue
3.807

@<SCITEGIC>MOL_PROPERTY
Bond
SciTegic.value.DoubleValue
0.125

@<SCITEGIC>MOL_PROPERTY
Angle
SciTegic.value.DoubleValue
0.616

@<SCITEGIC>MOL_PROPERTY
Pdih
SciTegic.value.DoubleValue
0.521

@<SCITEGIC>MOL_PROPERTY
Idih
SciTegic.value.DoubleValue
0.000

@<SCITEGIC>MOL_PROPERTY
Tether
SciTegic.value.DoubleValue
0.000

@<TRIPOS>MOLECULE
guest-1_confgen4.mol2 : confsearch ligand conformer 865
          17          16           1
SMALL
USER_CHARGES
 
@<TRIPOS>ATOM
       1    N1      21.101230   19.735398   19.406444 N.4        1 MOL1        -0.5891
       2    H1      21.863419   20.283272   19.817051 H          1 MOL1         0.3726
       3    H2      20.391378   20.400947   19.085738 H          1 MOL1         0.3726
       4    H3      21.480639   19.280813   18.569599 H          1 MOL1         0.3726
       5    C1      20.533744   18.728168   20.386650 C.3        1 MOL1         0.0314
       6    H4      21.334263   18.035506   20.660351 H          1 MOL1         0.0999
       7    H5      19.751367   18.162009   19.873936 H          1 MOL1         0.0999
       8    C2      19.954612   19.377513   21.656775 C.3        1 MOL1        -0.1308
       9    H6      20.739098   19.957781   22.160623 H          1 MOL1         0.1025
      10    H7      19.161557   20.083729   21.376930 H          1 MOL1         0.1025
      11    C3      19.387922   18.317980   22.627225 C.3        1 MOL1        -0.1243
      12    H8      20.180501   17.608808   22.905109 H          1 MOL1         0.1025
      13    H9      18.604841   17.734653   22.122409 H          1 MOL1         0.1025
      14    C4      18.805234   18.962018   23.903801 C.3        1 MOL1        -0.2258
      15    H10     18.408235   18.193336   24.579499 H          1 MOL1         0.1036
      16    H11     17.986137   19.651251   23.660400 H          1 MOL1         0.1036
      17    H12     19.574231   19.524464   24.449242 H          1 MOL1         0.1036
@<TRIPOS>BOND
    1     1     2    1
    2     1     3    1
    3     1     4    1
    4     1     5    1
    5     5     6    1
    6     5     7    1
    7     5     8    1
    8     8     9    1
    9     8    10    1
   10     8    11    1
   11    11    12    1
   12    11    13    1
   13    11    14    1
   14    14    15    1
   15    14    16    1
   16    14    17    1
@<TRIPOS>SUBSTRUCTURE
       1 MOL1            1 RESIDUE      1      MOL     
@<SCITEGIC>MOL_PROPERTY
VConf Rank
SciTegic.value.IntegerValue
865

@<SCITEGIC>MOL_PROPERTY
Conf_Id
SciTegic.value.IntegerValue
7

@<SCITEGIC>MOL_PROPERTY
Delta U+W
SciTegic.value.DoubleValue
0.000

@<SCITEGIC>MOL_PROPERTY
U+W
SciTegic.value.DoubleValue
-15.865

@<SCITEGIC>MOL_PROPERTY
Grad RMS
SciTegic.value.DoubleValue
0.000000

@<SCITEGIC>MOL_PROPERTY
U
SciTegic.value.DoubleValue
44.664

@<SCITEGIC>MOL_PROPERTY
W
SciTegic.value.DoubleValue
-60.529

@<SCITEGIC>MOL_PROPERTY
W(PB)
SciTegic.value.DoubleValue
-62.309

@<SCITEGIC>MOL_PROPERTY
W(SA)
SciTegic.value.DoubleValue
1.780

@<SCITEGIC>MOL_PROPERTY
Valence
SciTegic.value.DoubleValue
0.872

@<SCITEGIC>MOL_PROPERTY
Coulomb
SciTegic.value.DoubleValue
43.648

@<SCITEGIC>MOL_PROPERTY
VdW
SciTegic.value.DoubleValue
0.144

@<SCITEGIC>MOL_PROPERTY
VdW6
SciTegic.value.DoubleValue
-2.370

@<SCITEGIC>MOL_PROPERTY
VdW12
SciTegic.value.DoubleValue
2.515

@<SCITEGIC>MOL_PROPERTY
Bond
SciTegic.value.DoubleValue
0.080

@<SCITEGIC>MOL_PROPERTY
Angle
SciTegic.value.DoubleValue
0.376

@<SCITEGIC>MOL_PROPERTY
Pdih
SciTegic.value.DoubleValue
0.416

@<SCITEGIC>MOL_PROPERTY
Idih
SciTegic.value.DoubleValue
0.000

@<SCITEGIC>MOL_PROPERTY
Tether
SciTegic.value.DoubleValue
0.000

@<TRIPOS>MOLECULE
guest-1_confgen4.mol2 : confsearch ligand conformer 866
          17          16           1
SMALL
USER_CHARGES
 
@<TRIPOS>ATOM
       1    N1      22.116838   19.595543   22.508887 N.4        1 MOL1        -0.5891
       2    H1      22.811536   19.036250   22.004671 H          1 MOL1         0.3726
       3    H2      21.995296   19.164613   23.430393 H          1 MOL1         0.3726
       4    H3      22.536300   20.517633   22.665879 H          1 MOL1         0.3726
       5    C1      20.807941   19.693301   21.750872 C.3        1 MOL1         0.0314
       6    H4      21.006561   20.187184   20.795865 H          1 MOL1         0.0999
       7    H5      20.130882   20.326463   22.330126 H          1 MOL1         0.0999
       8    C2      20.149549   18.323459   21.497869 C.3        1 MOL1        -0.1308
       9    H6      20.852855   17.681814   20.950575 H          1 MOL1         0.1025
      10    H7      19.951598   17.826708   22.457005 H          1 MOL1         0.1025
      11    C3      18.835383   18.433441   20.689861 C.3        1 MOL1        -0.1243
      12    H8      18.462193   17.422032   20.475941 H          1 MOL1         0.1025
      13    H9      19.037662   18.900390   19.715579 H          1 MOL1         0.1025
      14    C4      17.736288   19.230376   21.429348 C.3        1 MOL1        -0.2258
      15    H10     17.519182   18.787385   22.410036 H          1 MOL1         0.1036
      16    H11     16.804679   19.230959   20.848734 H          1 MOL1         0.1036
      17    H12     18.030636   20.276221   21.583159 H          1 MOL1         0.1036
@<TRIPOS>BOND
    1     1     2    1
    2     1     3    1
    3     1     4    1
    4     1     5    1
    5     5     6    1
    6     5     7    1
    7     5     8    1
    8     8     9    1
    9     8    10    1
   10     8    11    1
   11    11    12    1
   12    11    13    1
   13    11    14    1
   14    14    15    1
   15    14    16    1
   16    14    17    1
@<TRIPOS>SUBSTRUCTURE
       1 MOL1            1 RESIDUE      1      MOL     
@<SCITEGIC>MOL_PROPERTY
VConf Rank
SciTegic.value.IntegerValue
866

@<SCITEGIC>MOL_PROPERTY
Conf_Id
SciTegic.value.IntegerValue
36

@<SCITEGIC>MOL_PROPERTY
Delta U+W
SciTegic.value.DoubleValue
0.275

@<SCITEGIC>MOL_PROPERTY
U+W
SciTegic.value.DoubleValue
-15.590

@<SCITEGIC>MOL_PROPERTY
Grad RMS
SciTegic.value.DoubleValue
0.000000

@<SCITEGIC>MOL_PROPERTY
U
SciTegic.value.DoubleValue
45.174

@<SCITEGIC>MOL_PROPERTY
W
SciTegic.value.DoubleValue
-60.765

@<SCITEGIC>MOL_PROPERTY
W(PB)
SciTegic.value.DoubleValue
-62.518

@<SCITEGIC>MOL_PROPERTY
W(SA)
SciTegic.value.DoubleValue
1.754

@<SCITEGIC>MOL_PROPERTY
Valence
SciTegic.value.DoubleValue
1.161

@<SCITEGIC>MOL_PROPERTY
Coulomb
SciTegic.value.DoubleValue
43.789

@<SCITEGIC>MOL_PROPERTY
VdW
SciTegic.value.DoubleValue
0.224

@<SCITEGIC>MOL_PROPERTY
VdW6
SciTegic.value.DoubleValue
-2.897

@<SCITEGIC>MOL_PROPERTY
VdW12
SciTegic.value.DoubleValue
3.121

@<SCITEGIC>MOL_PROPERTY
Bond
SciTegic.value.DoubleValue
0.100

@<SCITEGIC>MOL_PROPERTY
Angle
SciTegic.value.DoubleValue
0.500

@<SCITEGIC>MOL_PROPERTY
Pdih
SciTegic.value.DoubleValue
0.561

@<SCITEGIC>MOL_PROPERTY
Idih
SciTegic.value.DoubleValue
0.000

@<SCITEGIC>MOL_PROPERTY
Tether
SciTegic.value.DoubleValue
0.000

@<TRIPOS>MOLECULE
guest-1_confgen4.mol2 : confsearch ligand conformer 867
          17          16           1
SMALL
USER_CHARGES
 
@<TRIPOS>ATOM
       1    N1      21.418155   20.089301   21.827623 N.4        1 MOL1        -0.5891
       2    H1      20.646824   20.590429   21.379555 H          1 MOL1         0.3726
       3    H2      22.079068   19.830805   21.088805 H          1 MOL1         0.3726
       4    H3      21.900083   20.758184   22.436855 H          1 MOL1         0.3726
       5    C1      20.929610   18.876624   22.596238 C.3        1 MOL1         0.0314
       6    H4      20.284794   19.217311   23.410760 H          1 MOL1         0.0999
       7    H5      21.809994   18.402165   23.038221 H          1 MOL1         0.0999
       8    C2      20.178874   17.839519   21.734600 C.3        1 MOL1        -0.1308
       9    H6      20.712787   17.680253   20.788397 H          1 MOL1         0.1025
      10    H7      20.211076   16.878026   22.264073 H          1 MOL1         0.1025
      11    C3      18.692248   18.184582   21.463345 C.3        1 MOL1        -0.1243
      12    H8      18.154755   18.279112   22.417382 H          1 MOL1         0.1025
      13    H9      18.230724   17.337037   20.937367 H          1 MOL1         0.1025
      14    C4      18.476193   19.462760   20.621642 C.3        1 MOL1        -0.2258
      15    H10     18.729781   20.365785   21.189016 H          1 MOL1         0.1036
      16    H11     17.421944   19.551782   20.328744 H          1 MOL1         0.1036
      17    H12     19.076289   19.441043   19.702638 H          1 MOL1         0.1036
@<TRIPOS>BOND
    1     1     2    1
    2     1     3    1
    3     1     4    1
    4     1     5    1
    5     5     6    1
    6     5     7    1
    7     5     8    1
    8     8     9    1
    9     8    10    1
   10     8    11    1
   11    11    12    1
   12    11    13    1
   13    11    14    1
   14    14    15    1
   15    14    16    1
   16    14    17    1
@<TRIPOS>SUBSTRUCTURE
       1 MOL1            1 RESIDUE      1      MOL     
@<SCITEGIC>MOL_PROPERTY
VConf Rank
SciTegic.value.IntegerValue
867

@<SCITEGIC>MOL_PROPERTY
Conf_Id
SciTegic.value.IntegerValue
19

@<SCITEGIC>MOL_PROPERTY
Delta U+W
SciTegic.value.DoubleValue
2.662

@<SCITEGIC>MOL_PROPERTY
U+W
SciTegic.value.DoubleValue
-13.203

@<SCITEGIC>MOL_PROPERTY
Grad RMS
SciTegic.value.DoubleValue
0.000000

@<SCITEGIC>MOL_PROPERTY
U
SciTegic.value.DoubleValue
47.423

@<SCITEGIC>MOL_PROPERTY
W
SciTegic.value.DoubleValue
-60.626

@<SCITEGIC>MOL_PROPERTY
W(PB)
SciTegic.value.DoubleValue
-62.328

@<SCITEGIC>MOL_PROPERTY
W(SA)
SciTegic.value.DoubleValue
1.702

@<SCITEGIC>MOL_PROPERTY
Valence
SciTegic.value.DoubleValue
2.414

@<SCITEGIC>MOL_PROPERTY
Coulomb
SciTegic.value.DoubleValue
44.831

@<SCITEGIC>MOL_PROPERTY
VdW
SciTegic.value.DoubleValue
0.178

@<SCITEGIC>MOL_PROPERTY
VdW6
SciTegic.value.DoubleValue
-3.743

@<SCITEGIC>MOL_PROPERTY
VdW12
SciTegic.value.DoubleValue
3.921

@<SCITEGIC>MOL_PROPERTY
Bond
SciTegic.value.DoubleValue
0.138

@<SCITEGIC>MOL_PROPERTY
Angle
SciTegic.value.DoubleValue
0.941

@<SCITEGIC>MOL_PROPERTY
Pdih
SciTegic.value.DoubleValue
1.335

@<SCITEGIC>MOL_PROPERTY
Idih
SciTegic.value.DoubleValue
0.000

@<SCITEGIC>MOL_PROPERTY
Tether
SciTegic.value.DoubleValue
0.000

@<TRIPOS>MOLECULE
guest-1_confgen4.mol2 : confsearch ligand conformer 868
          17          16           1
SMALL
USER_CHARGES
 
@<TRIPOS>ATOM
       1    N1      20.045994   19.000493   23.450784 N.4        1 MOL1        -0.5891
       2    H1      19.715998   18.577781   24.324421 H          1 MOL1         0.3726
       3    H2      20.624306   19.805345   23.710108 H          1 MOL1         0.3726
       4    H3      20.662552   18.319697   22.999989 H          1 MOL1         0.3726
       5    C1      18.895154   19.401059   22.547925 C.3        1 MOL1         0.0314
       6    H4      18.291922   20.125937   23.101279 H          1 MOL1         0.0999
       7    H5      18.276316   18.519391   22.360838 H          1 MOL1         0.0999
       8    C2      19.329768   20.028339   21.206567 C.3        1 MOL1        -0.1308
       9    H6      18.483200   20.610790   20.819372 H          1 MOL1         0.1025
      10    H7      20.140102   20.750061   21.374512 H          1 MOL1         0.1025
      11    C3      19.738761   19.001785   20.119546 C.3        1 MOL1        -0.1243
      12    H8      19.925480   19.545583   19.182844 H          1 MOL1         0.1025
      13    H9      18.897320   18.324838   19.915238 H          1 MOL1         0.1025
      14    C4      20.995584   18.171335   20.465418 C.3        1 MOL1        -0.2258
      15    H10     21.829956   18.817829   20.767118 H          1 MOL1         0.1036
      16    H11     21.321883   17.592930   19.591271 H          1 MOL1         0.1036
      17    H12     20.794913   17.453653   21.269372 H          1 MOL1         0.1036
@<TRIPOS>BOND
    1     1     2    1
    2     1     3    1
    3     1     4    1
    4     1     5    1
    5     5     6    1
    6     5     7    1
    7     5     8    1
    8     8     9    1
    9     8    10    1
   10     8    11    1
   11    11    12    1
   12    11    13    1
   13    11    14    1
   14    14    15    1
   15    14    16    1
   16    14    17    1
@<TRIPOS>SUBSTRUCTURE
       1 MOL1            1 RESIDUE      1      MOL     
@<SCITEGIC>MOL_PROPERTY
VConf Rank
SciTegic.value.IntegerValue
868

@<SCITEGIC>MOL_PROPERTY
Conf_Id
SciTegic.value.IntegerValue
44

@<SCITEGIC>MOL_PROPERTY
Delta U+W
SciTegic.value.DoubleValue
2.712

@<SCITEGIC>MOL_PROPERTY
U+W
SciTegic.value.DoubleValue
-13.153

@<SCITEGIC>MOL_PROPERTY
Grad RMS
SciTegic.value.DoubleValue
0.000000

@<SCITEGIC>MOL_PROPERTY
U
SciTegic.value.DoubleValue
47.423

@<SCITEGIC>MOL_PROPERTY
W
SciTegic.value.DoubleValue
-60.576

@<SCITEGIC>MOL_PROPERTY
W(PB)
SciTegic.value.DoubleValue
-62.262

@<SCITEGIC>MOL_PROPERTY
W(SA)
SciTegic.value.DoubleValue
1.687

@<SCITEGIC>MOL_PROPERTY
Valence
SciTegic.value.DoubleValue
2.414

@<SCITEGIC>MOL_PROPERTY
Coulomb
SciTegic.value.DoubleValue
44.831

@<SCITEGIC>MOL_PROPERTY
VdW
SciTegic.value.DoubleValue
0.178

@<SCITEGIC>MOL_PROPERTY
VdW6
SciTegic.value.DoubleValue
-3.743

@<SCITEGIC>MOL_PROPERTY
VdW12
SciTegic.value.DoubleValue
3.922

@<SCITEGIC>MOL_PROPERTY
Bond
SciTegic.value.DoubleValue
0.138

@<SCITEGIC>MOL_PROPERTY
Angle
SciTegic.value.DoubleValue
0.941

@<SCITEGIC>MOL_PROPERTY
Pdih
SciTegic.value.DoubleValue
1.335

@<SCITEGIC>MOL_PROPERTY
Idih
SciTegic.value.DoubleValue
0.000

@<SCITEGIC>MOL_PROPERTY
Tether
SciTegic.value.DoubleValue
0.000

@<TRIPOS>MOLECULE
guest-1_confgen4.mol2 : confsearch ligand conformer 869
          17          16           1
SMALL
USER_CHARGES
 
@<TRIPOS>ATOM
       1    N1      18.281413   19.386779   20.529649 N.4        1 MOL1        -0.5891
       2    H1      19.049502   19.246706   19.867180 H          1 MOL1         0.3726
       3    H2      18.046735   20.383817   20.514829 H          1 MOL1         0.3726
       4    H3      17.469437   18.884349   20.156920 H          1 MOL1         0.3726
       5    C1      18.647479   18.912339   21.922761 C.3        1 MOL1         0.0314
       6    H4      18.856201   17.840561   21.872455 H          1 MOL1         0.0999
       7    H5      17.773649   19.056614   22.563967 H          1 MOL1         0.0999
       8    C2      19.856816   19.649746   22.534034 C.3        1 MOL1        -0.1308
       9    H6      19.622051   20.719132   22.617995 H          1 MOL1         0.1025
      10    H7      20.006668   19.288280   23.560041 H          1 MOL1         0.1025
      11    C3      21.171993   19.473403   21.734804 C.3        1 MOL1        -0.1243
      12    H8      21.968631   20.042197   22.234550 H          1 MOL1         0.1025
      13    H9      21.067523   19.913752   20.733888 H          1 MOL1         0.1025
      14    C4      21.611634   17.996556   21.610564 C.3        1 MOL1        -0.2258
      15    H10     21.724128   17.533796   22.599638 H          1 MOL1         0.1036
      16    H11     22.578382   17.924637   21.095593 H          1 MOL1         0.1036
      17    H12     20.886398   17.406099   21.036682 H          1 MOL1         0.1036
@<TRIPOS>BOND
    1     1     2    1
    2     1     3    1
    3     1     4    1
    4     1     5    1
    5     5     6    1
    6     5     7    1
    7     5     8    1
    8     8     9    1
    9     8    10    1
   10     8    11    1
   11    11    12    1
   12    11    13    1
   13    11    14    1
   14    14    15    1
   15    14    16    1
   16    14    17    1
@<TRIPOS>SUBSTRUCTURE
       1 MOL1            1 RESIDUE      1      MOL     
@<SCITEGIC>MOL_PROPERTY
VConf Rank
SciTegic.value.IntegerValue
869

@<SCITEGIC>MOL_PROPERTY
Conf_Id
SciTegic.value.IntegerValue
1

@<SCITEGIC>MOL_PROPERTY
Delta U+W
SciTegic.value.DoubleValue
0.685

@<SCITEGIC>MOL_PROPERTY
U+W
SciTegic.value.DoubleValue
-15.179

@<SCITEGIC>MOL_PROPERTY
Grad RMS
SciTegic.value.DoubleValue
0.000000

@<SCITEGIC>MOL_PROPERTY
U
SciTegic.value.DoubleValue
45.697

@<SCITEGIC>MOL_PROPERTY
W
SciTegic.value.DoubleValue
-60.876

@<SCITEGIC>MOL_PROPERTY
W(PB)
SciTegic.value.DoubleValue
-62.586

@<SCITEGIC>MOL_PROPERTY
W(SA)
SciTegic.value.DoubleValue
1.710

@<SCITEGIC>MOL_PROPERTY
Valence
SciTegic.value.DoubleValue
1.263

@<SCITEGIC>MOL_PROPERTY
Coulomb
SciTegic.value.DoubleValue
44.179

@<SCITEGIC>MOL_PROPERTY
VdW
SciTegic.value.DoubleValue
0.255

@<SCITEGIC>MOL_PROPERTY
VdW6
SciTegic.value.DoubleValue
-3.552

@<SCITEGIC>MOL_PROPERTY
VdW12
SciTegic.value.DoubleValue
3.807

@<SCITEGIC>MOL_PROPERTY
Bond
SciTegic.value.DoubleValue
0.125

@<SCITEGIC>MOL_PROPERTY
Angle
SciTegic.value.DoubleValue
0.616

@<SCITEGIC>MOL_PROPERTY
Pdih
SciTegic.value.DoubleValue
0.521

@<SCITEGIC>MOL_PROPERTY
Idih
SciTegic.value.DoubleValue
0.000

@<SCITEGIC>MOL_PROPERTY
Tether
SciTegic.value.DoubleValue
0.000

@<TRIPOS>MOLECULE
guest-1_confgen4.mol2 : confsearch ligand conformer 870
          17          16           1
SMALL
USER_CHARGES
 
@<TRIPOS>ATOM
       1    N1      21.308384   17.619443   21.389267 N.4        1 MOL1        -0.5891
       2    H1      21.888435   17.533483   22.229224 H          1 MOL1         0.3726
       3    H2      21.637725   18.442517   20.876888 H          1 MOL1         0.3726
       4    H3      21.509382   16.802376   20.803888 H          1 MOL1         0.3726
       5    C1      19.833710   17.721502   21.728056 C.3        1 MOL1         0.0314
       6    H4      19.544397   16.798213   22.237343 H          1 MOL1         0.0999
       7    H5      19.273472   17.780300   20.791316 H          1 MOL1         0.0999
       8    C2      19.482068   18.929185   22.621237 C.3        1 MOL1        -0.1308
       9    H6      18.412531   18.885316   22.866124 H          1 MOL1         0.1025
      10    H7      20.017982   18.839861   23.575473 H          1 MOL1         0.1025
      11    C3      19.801514   20.302080   21.978844 C.3        1 MOL1        -0.1243
      12    H8      20.882935   20.398298   21.811733 H          1 MOL1         0.1025
      13    H9      19.532771   21.096267   22.689442 H          1 MOL1         0.1025
      14    C4      19.046347   20.539695   20.651041 C.3        1 MOL1        -0.2258
      15    H10     19.251279   21.547225   20.266523 H          1 MOL1         0.1036
      16    H11     17.961469   20.449801   20.792554 H          1 MOL1         0.1036
      17    H12     19.351584   19.822477   19.878787 H          1 MOL1         0.1036
@<TRIPOS>BOND
    1     1     2    1
    2     1     3    1
    3     1     4    1
    4     1     5    1
    5     5     6    1
    6     5     7    1
    7     5     8    1
    8     8     9    1
    9     8    10    1
   10     8    11    1
   11    11    12    1
   12    11    13    1
   13    11    14    1
   14    14    15    1
   15    14    16    1
   16    14    17    1
@<TRIPOS>SUBSTRUCTURE
       1 MOL1            1 RESIDUE      1      MOL     
@<SCITEGIC>MOL_PROPERTY
VConf Rank
SciTegic.value.IntegerValue
870

@<SCITEGIC>MOL_PROPERTY
Conf_Id
SciTegic.value.IntegerValue
43

@<SCITEGIC>MOL_PROPERTY
Delta U+W
SciTegic.value.DoubleValue
0.642

@<SCITEGIC>MOL_PROPERTY
U+W
SciTegic.value.DoubleValue
-15.222

@<SCITEGIC>MOL_PROPERTY
Grad RMS
SciTegic.value.DoubleValue
0.000000

@<SCITEGIC>MOL_PROPERTY
U
SciTegic.value.DoubleValue
45.697

@<SCITEGIC>MOL_PROPERTY
W
SciTegic.value.DoubleValue
-60.919

@<SCITEGIC>MOL_PROPERTY
W(PB)
SciTegic.value.DoubleValue
-62.631

@<SCITEGIC>MOL_PROPERTY
W(SA)
SciTegic.value.DoubleValue
1.712

@<SCITEGIC>MOL_PROPERTY
Valence
SciTegic.value.DoubleValue
1.262

@<SCITEGIC>MOL_PROPERTY
Coulomb
SciTegic.value.DoubleValue
44.179

@<SCITEGIC>MOL_PROPERTY
VdW
SciTegic.value.DoubleValue
0.255

@<SCITEGIC>MOL_PROPERTY
VdW6
SciTegic.value.DoubleValue
-3.552

@<SCITEGIC>MOL_PROPERTY
VdW12
SciTegic.value.DoubleValue
3.807

@<SCITEGIC>MOL_PROPERTY
Bond
SciTegic.value.DoubleValue
0.125

@<SCITEGIC>MOL_PROPERTY
Angle
SciTegic.value.DoubleValue
0.616

@<SCITEGIC>MOL_PROPERTY
Pdih
SciTegic.value.DoubleValue
0.521

@<SCITEGIC>MOL_PROPERTY
Idih
SciTegic.value.DoubleValue
0.000

@<SCITEGIC>MOL_PROPERTY
Tether
SciTegic.value.DoubleValue
0.000

@<TRIPOS>MOLECULE
guest-1_confgen4.mol2 : confsearch ligand conformer 871
          17          16           1
SMALL
USER_CHARGES
 
@<TRIPOS>ATOM
       1    N1      19.245370   19.379271   19.156824 N.4        1 MOL1        -0.5891
       2    H1      18.234960   19.431474   19.318198 H          1 MOL1         0.3726
       3    H2      19.449682   18.428447   18.834507 H          1 MOL1         0.3726
       4    H3      19.453292   20.008321   18.374538 H          1 MOL1         0.3726
       5    C1      20.038033   19.741172   20.397014 C.3        1 MOL1         0.0314
       6    H4      19.794501   20.773099   20.664112 H          1 MOL1         0.0999
       7    H5      21.100729   19.694564   20.143975 H          1 MOL1         0.0999
       8    C2      19.749811   18.815378   21.592880 C.3        1 MOL1        -0.1308
       9    H6      18.679141   18.852946   21.834222 H          1 MOL1         0.1025
      10    H7      19.981012   17.778154   21.315930 H          1 MOL1         0.1025
      11    C3      20.576433   19.218237   22.833816 C.3        1 MOL1        -0.1243
      12    H8      20.347899   20.257505   23.109534 H          1 MOL1         0.1025
      13    H9      21.648175   19.183957   22.591907 H          1 MOL1         0.1025
      14    C4      20.292484   18.293930   24.037553 C.3        1 MOL1        -0.2258
      15    H10     20.888839   18.596551   24.908088 H          1 MOL1         0.1036
      16    H11     20.544303   17.251329   23.803507 H          1 MOL1         0.1036
      17    H12     19.233745   18.333312   24.325177 H          1 MOL1         0.1036
@<TRIPOS>BOND
    1     1     2    1
    2     1     3    1
    3     1     4    1
    4     1     5    1
    5     5     6    1
    6     5     7    1
    7     5     8    1
    8     8     9    1
    9     8    10    1
   10     8    11    1
   11    11    12    1
   12    11    13    1
   13    11    14    1
   14    14    15    1
   15    14    16    1
   16    14    17    1
@<TRIPOS>SUBSTRUCTURE
       1 MOL1            1 RESIDUE      1      MOL     
@<SCITEGIC>MOL_PROPERTY
VConf Rank
SciTegic.value.IntegerValue
871

@<SCITEGIC>MOL_PROPERTY
Conf_Id
SciTegic.value.IntegerValue
7

@<SCITEGIC>MOL_PROPERTY
Delta U+W
SciTegic.value.DoubleValue
0.000

@<SCITEGIC>MOL_PROPERTY
U+W
SciTegic.value.DoubleValue
-15.865

@<SCITEGIC>MOL_PROPERTY
Grad RMS
SciTegic.value.DoubleValue
0.000000

@<SCITEGIC>MOL_PROPERTY
U
SciTegic.value.DoubleValue
44.664

@<SCITEGIC>MOL_PROPERTY
W
SciTegic.value.DoubleValue
-60.529

@<SCITEGIC>MOL_PROPERTY
W(PB)
SciTegic.value.DoubleValue
-62.309

@<SCITEGIC>MOL_PROPERTY
W(SA)
SciTegic.value.DoubleValue
1.780

@<SCITEGIC>MOL_PROPERTY
Valence
SciTegic.value.DoubleValue
0.872

@<SCITEGIC>MOL_PROPERTY
Coulomb
SciTegic.value.DoubleValue
43.648

@<SCITEGIC>MOL_PROPERTY
VdW
SciTegic.value.DoubleValue
0.144

@<SCITEGIC>MOL_PROPERTY
VdW6
SciTegic.value.DoubleValue
-2.370

@<SCITEGIC>MOL_PROPERTY
VdW12
SciTegic.value.DoubleValue
2.515

@<SCITEGIC>MOL_PROPERTY
Bond
SciTegic.value.DoubleValue
0.080

@<SCITEGIC>MOL_PROPERTY
Angle
SciTegic.value.DoubleValue
0.376

@<SCITEGIC>MOL_PROPERTY
Pdih
SciTegic.value.DoubleValue
0.416

@<SCITEGIC>MOL_PROPERTY
Idih
SciTegic.value.DoubleValue
0.000

@<SCITEGIC>MOL_PROPERTY
Tether
SciTegic.value.DoubleValue
0.000

@<TRIPOS>MOLECULE
guest-1_confgen4.mol2 : confsearch ligand conformer 872
          17          16           1
SMALL
USER_CHARGES
 
@<TRIPOS>ATOM
       1    N1      21.169847   17.547429   22.994490 N.4        1 MOL1        -0.5891
       2    H1      21.478225   16.764302   22.410313 H          1 MOL1         0.3726
       3    H2      20.388509   17.208384   23.563881 H          1 MOL1         0.3726
       4    H3      21.938376   17.756059   23.639998 H          1 MOL1         0.3726
       5    C1      20.785474   18.757013   22.165924 C.3        1 MOL1         0.0314
       6    H4      21.669789   19.081111   21.610626 H          1 MOL1         0.0999
       7    H5      20.499496   19.557612   22.853016 H          1 MOL1         0.0999
       8    C2      19.631440   18.477927   21.183949 C.3        1 MOL1        -0.1308
       9    H6      19.913105   17.646000   20.524828 H          1 MOL1         0.1025
      10    H7      18.743774   18.150803   21.741557 H          1 MOL1         0.1025
      11    C3      19.275101   19.708266   20.317176 C.3        1 MOL1        -0.1243
      12    H8      18.505054   19.420100   19.587814 H          1 MOL1         0.1025
      13    H9      20.153635   20.016713   19.733035 H          1 MOL1         0.1025
      14    C4      18.758806   20.904515   21.149272 C.3        1 MOL1        -0.2258
      15    H10     17.883366   20.620906   21.747849 H          1 MOL1         0.1036
      16    H11     18.460777   21.731041   20.491214 H          1 MOL1         0.1036
      17    H12     19.530609   21.285592   21.829854 H          1 MOL1         0.1036
@<TRIPOS>BOND
    1     1     2    1
    2     1     3    1
    3     1     4    1
    4     1     5    1
    5     5     6    1
    6     5     7    1
    7     5     8    1
    8     8     9    1
    9     8    10    1
   10     8    11    1
   11    11    12    1
   12    11    13    1
   13    11    14    1
   14    14    15    1
   15    14    16    1
   16    14    17    1
@<TRIPOS>SUBSTRUCTURE
       1 MOL1            1 RESIDUE      1      MOL     
@<SCITEGIC>MOL_PROPERTY
VConf Rank
SciTegic.value.IntegerValue
872

@<SCITEGIC>MOL_PROPERTY
Conf_Id
SciTegic.value.IntegerValue
36

@<SCITEGIC>MOL_PROPERTY
Delta U+W
SciTegic.value.DoubleValue
0.275

@<SCITEGIC>MOL_PROPERTY
U+W
SciTegic.value.DoubleValue
-15.590

@<SCITEGIC>MOL_PROPERTY
Grad RMS
SciTegic.value.DoubleValue
0.000000

@<SCITEGIC>MOL_PROPERTY
U
SciTegic.value.DoubleValue
45.174

@<SCITEGIC>MOL_PROPERTY
W
SciTegic.value.DoubleValue
-60.765

@<SCITEGIC>MOL_PROPERTY
W(PB)
SciTegic.value.DoubleValue
-62.518

@<SCITEGIC>MOL_PROPERTY
W(SA)
SciTegic.value.DoubleValue
1.754

@<SCITEGIC>MOL_PROPERTY
Valence
SciTegic.value.DoubleValue
1.161

@<SCITEGIC>MOL_PROPERTY
Coulomb
SciTegic.value.DoubleValue
43.789

@<SCITEGIC>MOL_PROPERTY
VdW
SciTegic.value.DoubleValue
0.224

@<SCITEGIC>MOL_PROPERTY
VdW6
SciTegic.value.DoubleValue
-2.897

@<SCITEGIC>MOL_PROPERTY
VdW12
SciTegic.value.DoubleValue
3.121

@<SCITEGIC>MOL_PROPERTY
Bond
SciTegic.value.DoubleValue
0.100

@<SCITEGIC>MOL_PROPERTY
Angle
SciTegic.value.DoubleValue
0.500

@<SCITEGIC>MOL_PROPERTY
Pdih
SciTegic.value.DoubleValue
0.561

@<SCITEGIC>MOL_PROPERTY
Idih
SciTegic.value.DoubleValue
0.000

@<SCITEGIC>MOL_PROPERTY
Tether
SciTegic.value.DoubleValue
0.000

@<TRIPOS>MOLECULE
guest-1_confgen4.mol2 : confsearch ligand conformer 873
          17          16           1
SMALL
USER_CHARGES
 
@<TRIPOS>ATOM
       1    N1      19.413435   17.218694   21.828114 N.4        1 MOL1        -0.5891
       2    H1      19.769850   17.615188   22.701387 H          1 MOL1         0.3726
       3    H2      20.163833   16.647288   21.428266 H          1 MOL1         0.3726
       4    H3      18.651845   16.578561   22.075165 H          1 MOL1         0.3726
       5    C1      18.953818   18.297990   20.866916 C.3        1 MOL1         0.0314
       6    H4      18.110763   18.828984   21.317032 H          1 MOL1         0.0999
       7    H5      18.592991   17.792329   19.967111 H          1 MOL1         0.0999
       8    C2      20.053972   19.305106   20.470693 C.3        1 MOL1        -0.1308
       9    H6      20.989499   18.773026   20.252957 H          1 MOL1         0.1025
      10    H7      19.750441   19.778789   19.527645 H          1 MOL1         0.1025
      11    C3      20.301769   20.428186   21.509920 C.3        1 MOL1        -0.1243
      12    H8      19.373134   20.993389   21.671797 H          1 MOL1         0.1025
      13    H9      21.021114   21.141490   21.083623 H          1 MOL1         0.1025
      14    C4      20.846567   19.932594   22.868767 C.3        1 MOL1        -0.2258
      15    H10     20.082990   19.384142   23.432528 H          1 MOL1         0.1036
      16    H11     21.154814   20.784551   23.488693 H          1 MOL1         0.1036
      17    H12     21.722365   19.284409   22.734645 H          1 MOL1         0.1036
@<TRIPOS>BOND
    1     1     2    1
    2     1     3    1
    3     1     4    1
    4     1     5    1
    5     5     6    1
    6     5     7    1
    7     5     8    1
    8     8     9    1
    9     8    10    1
   10     8    11    1
   11    11    12    1
   12    11    13    1
   13    11    14    1
   14    14    15    1
   15    14    16    1
   16    14    17    1
@<TRIPOS>SUBSTRUCTURE
       1 MOL1            1 RESIDUE      1      MOL     
@<SCITEGIC>MOL_PROPERTY
VConf Rank
SciTegic.value.IntegerValue
873

@<SCITEGIC>MOL_PROPERTY
Conf_Id
SciTegic.value.IntegerValue
19

@<SCITEGIC>MOL_PROPERTY
Delta U+W
SciTegic.value.DoubleValue
2.662

@<SCITEGIC>MOL_PROPERTY
U+W
SciTegic.value.DoubleValue
-13.203

@<SCITEGIC>MOL_PROPERTY
Grad RMS
SciTegic.value.DoubleValue
0.000000

@<SCITEGIC>MOL_PROPERTY
U
SciTegic.value.DoubleValue
47.423

@<SCITEGIC>MOL_PROPERTY
W
SciTegic.value.DoubleValue
-60.626

@<SCITEGIC>MOL_PROPERTY
W(PB)
SciTegic.value.DoubleValue
-62.328

@<SCITEGIC>MOL_PROPERTY
W(SA)
SciTegic.value.DoubleValue
1.702

@<SCITEGIC>MOL_PROPERTY
Valence
SciTegic.value.DoubleValue
2.414

@<SCITEGIC>MOL_PROPERTY
Coulomb
SciTegic.value.DoubleValue
44.831

@<SCITEGIC>MOL_PROPERTY
VdW
SciTegic.value.DoubleValue
0.178

@<SCITEGIC>MOL_PROPERTY
VdW6
SciTegic.value.DoubleValue
-3.743

@<SCITEGIC>MOL_PROPERTY
VdW12
SciTegic.value.DoubleValue
3.921

@<SCITEGIC>MOL_PROPERTY
Bond
SciTegic.value.DoubleValue
0.138

@<SCITEGIC>MOL_PROPERTY
Angle
SciTegic.value.DoubleValue
0.941

@<SCITEGIC>MOL_PROPERTY
Pdih
SciTegic.value.DoubleValue
1.335

@<SCITEGIC>MOL_PROPERTY
Idih
SciTegic.value.DoubleValue
0.000

@<SCITEGIC>MOL_PROPERTY
Tether
SciTegic.value.DoubleValue
0.000

@<TRIPOS>MOLECULE
guest-1_confgen4.mol2 : confsearch ligand conformer 874
          17          16           1
SMALL
USER_CHARGES
 
@<TRIPOS>ATOM
       1    N1      20.243132   17.842414   20.244942 N.4        1 MOL1        -0.5891
       2    H1      20.101932   17.592009   19.260979 H          1 MOL1         0.3726
       3    H2      20.659568   17.025869   20.702451 H          1 MOL1         0.3726
       4    H3      20.941580   18.589696   20.269097 H          1 MOL1         0.3726
       5    C1      18.947325   18.262184   20.911814 C.3        1 MOL1         0.0314
       6    H4      18.262873   17.412194   20.844135 H          1 MOL1         0.0999
       7    H5      18.515292   19.089875   20.342977 H          1 MOL1         0.0999
       8    C2      19.098757   18.669061   22.392736 C.3        1 MOL1        -0.1308
       9    H6      18.112342   18.580154   22.866999 H          1 MOL1         0.1025
      10    H7      19.749054   17.954167   22.914052 H          1 MOL1         0.1025
      11    C3      19.604473   20.117690   22.612806 C.3        1 MOL1        -0.1243
      12    H8      19.574172   20.334899   23.689789 H          1 MOL1         0.1025
      13    H9      18.910681   20.827142   22.140206 H          1 MOL1         0.1025
      14    C4      21.038238   20.379137   22.098176 C.3        1 MOL1        -0.2258
      15    H10     21.741603   19.626884   22.478369 H          1 MOL1         0.1036
      16    H11     21.389612   21.363346   22.434368 H          1 MOL1         0.1036
      17    H12     21.078578   20.380124   21.002708 H          1 MOL1         0.1036
@<TRIPOS>BOND
    1     1     2    1
    2     1     3    1
    3     1     4    1
    4     1     5    1
    5     5     6    1
    6     5     7    1
    7     5     8    1
    8     8     9    1
    9     8    10    1
   10     8    11    1
   11    11    12    1
   12    11    13    1
   13    11    14    1
   14    14    15    1
   15    14    16    1
   16    14    17    1
@<TRIPOS>SUBSTRUCTURE
       1 MOL1            1 RESIDUE      1      MOL     
@<SCITEGIC>MOL_PROPERTY
VConf Rank
SciTegic.value.IntegerValue
874

@<SCITEGIC>MOL_PROPERTY
Conf_Id
SciTegic.value.IntegerValue
44

@<SCITEGIC>MOL_PROPERTY
Delta U+W
SciTegic.value.DoubleValue
2.712

@<SCITEGIC>MOL_PROPERTY
U+W
SciTegic.value.DoubleValue
-13.153

@<SCITEGIC>MOL_PROPERTY
Grad RMS
SciTegic.value.DoubleValue
0.000000

@<SCITEGIC>MOL_PROPERTY
U
SciTegic.value.DoubleValue
47.423

@<SCITEGIC>MOL_PROPERTY
W
SciTegic.value.DoubleValue
-60.576

@<SCITEGIC>MOL_PROPERTY
W(PB)
SciTegic.value.DoubleValue
-62.262

@<SCITEGIC>MOL_PROPERTY
W(SA)
SciTegic.value.DoubleValue
1.687

@<SCITEGIC>MOL_PROPERTY
Valence
SciTegic.value.DoubleValue
2.414

@<SCITEGIC>MOL_PROPERTY
Coulomb
SciTegic.value.DoubleValue
44.831

@<SCITEGIC>MOL_PROPERTY
VdW
SciTegic.value.DoubleValue
0.178

@<SCITEGIC>MOL_PROPERTY
VdW6
SciTegic.value.DoubleValue
-3.743

@<SCITEGIC>MOL_PROPERTY
VdW12
SciTegic.value.DoubleValue
3.922

@<SCITEGIC>MOL_PROPERTY
Bond
SciTegic.value.DoubleValue
0.138

@<SCITEGIC>MOL_PROPERTY
Angle
SciTegic.value.DoubleValue
0.941

@<SCITEGIC>MOL_PROPERTY
Pdih
SciTegic.value.DoubleValue
1.335

@<SCITEGIC>MOL_PROPERTY
Idih
SciTegic.value.DoubleValue
0.000

@<SCITEGIC>MOL_PROPERTY
Tether
SciTegic.value.DoubleValue
0.000

@<TRIPOS>MOLECULE
guest-1_confgen4.mol2 : confsearch ligand conformer 875
          17          16           1
SMALL
USER_CHARGES
 
@<TRIPOS>ATOM
       1    N1      18.319478   20.142560   22.011169 N.4        1 MOL1        -0.5891
       2    H1      18.171241   19.731873   21.084990 H          1 MOL1         0.3726
       3    H2      18.505662   21.140464   21.873689 H          1 MOL1         0.3726
       4    H3      17.429815   20.072514   22.515413 H          1 MOL1         0.3726
       5    C1      19.446281   19.454292   22.757132 C.3        1 MOL1         0.0314
       6    H4      19.171186   18.405436   22.895075 H          1 MOL1         0.0999
       7    H5      19.522504   19.916320   23.745189 H          1 MOL1         0.0999
       8    C2      20.811472   19.544674   22.044388 C.3        1 MOL1        -0.1308
       9    H6      21.097983   20.600216   21.946961 H          1 MOL1         0.1025
      10    H7      21.573072   19.079051   22.683891 H          1 MOL1         0.1025
      11    C3      20.839057   18.873607   20.648514 C.3        1 MOL1        -0.1243
      12    H8      21.840881   19.000462   20.214737 H          1 MOL1         0.1025
      13    H9      20.146996   19.388418   19.968311 H          1 MOL1         0.1025
      14    C4      20.498965   17.366285   20.694506 C.3        1 MOL1        -0.2258
      15    H10     21.178843   16.828751   21.368220 H          1 MOL1         0.1036
      16    H11     20.594422   16.919411   19.696427 H          1 MOL1         0.1036
      17    H12     19.470785   17.194428   21.036938 H          1 MOL1         0.1036
@<TRIPOS>BOND
    1     1     2    1
    2     1     3    1
    3     1     4    1
    4     1     5    1
    5     5     6    1
    6     5     7    1
    7     5     8    1
    8     8     9    1
    9     8    10    1
   10     8    11    1
   11    11    12    1
   12    11    13    1
   13    11    14    1
   14    14    15    1
   15    14    16    1
   16    14    17    1
@<TRIPOS>SUBSTRUCTURE
       1 MOL1            1 RESIDUE      1      MOL     
@<SCITEGIC>MOL_PROPERTY
VConf Rank
SciTegic.value.IntegerValue
875

@<SCITEGIC>MOL_PROPERTY
Conf_Id
SciTegic.value.IntegerValue
1

@<SCITEGIC>MOL_PROPERTY
Delta U+W
SciTegic.value.DoubleValue
0.685

@<SCITEGIC>MOL_PROPERTY
U+W
SciTegic.value.DoubleValue
-15.179

@<SCITEGIC>MOL_PROPERTY
Grad RMS
SciTegic.value.DoubleValue
0.000000

@<SCITEGIC>MOL_PROPERTY
U
SciTegic.value.DoubleValue
45.697

@<SCITEGIC>MOL_PROPERTY
W
SciTegic.value.DoubleValue
-60.876

@<SCITEGIC>MOL_PROPERTY
W(PB)
SciTegic.value.DoubleValue
-62.586

@<SCITEGIC>MOL_PROPERTY
W(SA)
SciTegic.value.DoubleValue
1.710

@<SCITEGIC>MOL_PROPERTY
Valence
SciTegic.value.DoubleValue
1.263

@<SCITEGIC>MOL_PROPERTY
Coulomb
SciTegic.value.DoubleValue
44.179

@<SCITEGIC>MOL_PROPERTY
VdW
SciTegic.value.DoubleValue
0.255

@<SCITEGIC>MOL_PROPERTY
VdW6
SciTegic.value.DoubleValue
-3.552

@<SCITEGIC>MOL_PROPERTY
VdW12
SciTegic.value.DoubleValue
3.807

@<SCITEGIC>MOL_PROPERTY
Bond
SciTegic.value.DoubleValue
0.125

@<SCITEGIC>MOL_PROPERTY
Angle
SciTegic.value.DoubleValue
0.616

@<SCITEGIC>MOL_PROPERTY
Pdih
SciTegic.value.DoubleValue
0.521

@<SCITEGIC>MOL_PROPERTY
Idih
SciTegic.value.DoubleValue
0.000

@<SCITEGIC>MOL_PROPERTY
Tether
SciTegic.value.DoubleValue
0.000

@<TRIPOS>MOLECULE
guest-1_confgen4.mol2 : confsearch ligand conformer 876
          17          16           1
SMALL
USER_CHARGES
 
@<TRIPOS>ATOM
       1    N1      21.128478   20.534684   21.115345 N.4        1 MOL1        -0.5891
       2    H1      21.165681   21.239926   21.857387 H          1 MOL1         0.3726
       3    H2      20.250640   20.675699   20.607444 H          1 MOL1         0.3726
       4    H3      21.889421   20.748818   20.462828 H          1 MOL1         0.3726
       5    C1      21.238266   19.126403   21.667206 C.3        1 MOL1         0.0314
       6    H4      22.209836   19.036995   22.160761 H          1 MOL1         0.0999
       7    H5      21.221807   18.429598   20.825186 H          1 MOL1         0.0999
       8    C2      20.121893   18.760590   22.667112 C.3        1 MOL1        -0.1308
       9    H6      20.318227   17.754167   23.060011 H          1 MOL1         0.1025
      10    H7      20.172485   19.440066   23.528216 H          1 MOL1         0.1025
      11    C3      18.696259   18.802121   22.062627 C.3        1 MOL1        -0.1243
      12    H8      18.449285   19.825120   21.747777 H          1 MOL1         0.1025
      13    H9      17.971605   18.543208   22.847321 H          1 MOL1         0.1025
      14    C4      18.514919   17.832873   20.872051 C.3        1 MOL1        -0.2258
      15    H10     17.475788   17.847417   20.518549 H          1 MOL1         0.1036
      16    H11     18.755176   16.801849   21.162453 H          1 MOL1         0.1036
      17    H12     19.156222   18.108505   20.025466 H          1 MOL1         0.1036
@<TRIPOS>BOND
    1     1     2    1
    2     1     3    1
    3     1     4    1
    4     1     5    1
    5     5     6    1
    6     5     7    1
    7     5     8    1
    8     8     9    1
    9     8    10    1
   10     8    11    1
   11    11    12    1
   12    11    13    1
   13    11    14    1
   14    14    15    1
   15    14    16    1
   16    14    17    1
@<TRIPOS>SUBSTRUCTURE
       1 MOL1            1 RESIDUE      1      MOL     
@<SCITEGIC>MOL_PROPERTY
VConf Rank
SciTegic.value.IntegerValue
876

@<SCITEGIC>MOL_PROPERTY
Conf_Id
SciTegic.value.IntegerValue
43

@<SCITEGIC>MOL_PROPERTY
Delta U+W
SciTegic.value.DoubleValue
0.642

@<SCITEGIC>MOL_PROPERTY
U+W
SciTegic.value.DoubleValue
-15.222

@<SCITEGIC>MOL_PROPERTY
Grad RMS
SciTegic.value.DoubleValue
0.000000

@<SCITEGIC>MOL_PROPERTY
U
SciTegic.value.DoubleValue
45.697

@<SCITEGIC>MOL_PROPERTY
W
SciTegic.value.DoubleValue
-60.919

@<SCITEGIC>MOL_PROPERTY
W(PB)
SciTegic.value.DoubleValue
-62.631

@<SCITEGIC>MOL_PROPERTY
W(SA)
SciTegic.value.DoubleValue
1.712

@<SCITEGIC>MOL_PROPERTY
Valence
SciTegic.value.DoubleValue
1.262

@<SCITEGIC>MOL_PROPERTY
Coulomb
SciTegic.value.DoubleValue
44.179

@<SCITEGIC>MOL_PROPERTY
VdW
SciTegic.value.DoubleValue
0.255

@<SCITEGIC>MOL_PROPERTY
VdW6
SciTegic.value.DoubleValue
-3.552

@<SCITEGIC>MOL_PROPERTY
VdW12
SciTegic.value.DoubleValue
3.807

@<SCITEGIC>MOL_PROPERTY
Bond
SciTegic.value.DoubleValue
0.125

@<SCITEGIC>MOL_PROPERTY
Angle
SciTegic.value.DoubleValue
0.616

@<SCITEGIC>MOL_PROPERTY
Pdih
SciTegic.value.DoubleValue
0.521

@<SCITEGIC>MOL_PROPERTY
Idih
SciTegic.value.DoubleValue
0.000

@<SCITEGIC>MOL_PROPERTY
Tether
SciTegic.value.DoubleValue
0.000

@<TRIPOS>MOLECULE
guest-1_confgen4.mol2 : confsearch ligand conformer 877
          17          16           1
SMALL
USER_CHARGES
 
@<TRIPOS>ATOM
       1    N1      19.428038   18.662874   24.082427 N.4        1 MOL1        -0.5891
       2    H1      20.394217   18.646743   24.422918 H          1 MOL1         0.3726
       3    H2      19.122584   17.688554   23.998191 H          1 MOL1         0.3726
       4    H3      18.860274   19.088390   24.822352 H          1 MOL1         0.3726
       5    C1      19.300169   19.413493   22.771864 C.3        1 MOL1         0.0314
       6    H4      19.612115   20.447357   22.943150 H          1 MOL1         0.0999
       7    H5      18.244683   19.417034   22.486449 H          1 MOL1         0.0999
       8    C2      20.140966   18.800585   21.637111 C.3        1 MOL1        -0.1308
       9    H6      21.198251   18.784507   21.933557 H          1 MOL1         0.1025
      10    H7      19.835428   17.757788   21.478328 H          1 MOL1         0.1025
      11    C3      19.982346   19.594359   20.321709 C.3        1 MOL1        -0.1243
      12    H8      20.284895   20.639086   20.480877 H          1 MOL1         0.1025
      13    H9      18.923758   19.613563   20.026161 H          1 MOL1         0.1025
      14    C4      20.823023   18.985355   19.178760 C.3        1 MOL1        -0.2258
      15    H10     20.696663   19.563175   18.253987 H          1 MOL1         0.1036
      16    H11     20.519558   17.950610   18.972800 H          1 MOL1         0.1036
      17    H12     21.891437   18.984177   19.431142 H          1 MOL1         0.1036
@<TRIPOS>BOND
    1     1     2    1
    2     1     3    1
    3     1     4    1
    4     1     5    1
    5     5     6    1
    6     5     7    1
    7     5     8    1
    8     8     9    1
    9     8    10    1
   10     8    11    1
   11    11    12    1
   12    11    13    1
   13    11    14    1
   14    14    15    1
   15    14    16    1
   16    14    17    1
@<TRIPOS>SUBSTRUCTURE
       1 MOL1            1 RESIDUE      1      MOL     
@<SCITEGIC>MOL_PROPERTY
VConf Rank
SciTegic.value.IntegerValue
877

@<SCITEGIC>MOL_PROPERTY
Conf_Id
SciTegic.value.IntegerValue
7

@<SCITEGIC>MOL_PROPERTY
Delta U+W
SciTegic.value.DoubleValue
0.000

@<SCITEGIC>MOL_PROPERTY
U+W
SciTegic.value.DoubleValue
-15.865

@<SCITEGIC>MOL_PROPERTY
Grad RMS
SciTegic.value.DoubleValue
0.000000

@<SCITEGIC>MOL_PROPERTY
U
SciTegic.value.DoubleValue
44.664

@<SCITEGIC>MOL_PROPERTY
W
SciTegic.value.DoubleValue
-60.529

@<SCITEGIC>MOL_PROPERTY
W(PB)
SciTegic.value.DoubleValue
-62.309

@<SCITEGIC>MOL_PROPERTY
W(SA)
SciTegic.value.DoubleValue
1.780

@<SCITEGIC>MOL_PROPERTY
Valence
SciTegic.value.DoubleValue
0.872

@<SCITEGIC>MOL_PROPERTY
Coulomb
SciTegic.value.DoubleValue
43.648

@<SCITEGIC>MOL_PROPERTY
VdW
SciTegic.value.DoubleValue
0.144

@<SCITEGIC>MOL_PROPERTY
VdW6
SciTegic.value.DoubleValue
-2.370

@<SCITEGIC>MOL_PROPERTY
VdW12
SciTegic.value.DoubleValue
2.515

@<SCITEGIC>MOL_PROPERTY
Bond
SciTegic.value.DoubleValue
0.080

@<SCITEGIC>MOL_PROPERTY
Angle
SciTegic.value.DoubleValue
0.376

@<SCITEGIC>MOL_PROPERTY
Pdih
SciTegic.value.DoubleValue
0.416

@<SCITEGIC>MOL_PROPERTY
Idih
SciTegic.value.DoubleValue
0.000

@<SCITEGIC>MOL_PROPERTY
Tether
SciTegic.value.DoubleValue
0.000

@<TRIPOS>MOLECULE
guest-1_confgen4.mol2 : confsearch ligand conformer 878
          17          16           1
SMALL
USER_CHARGES
 
@<TRIPOS>ATOM
       1    N1      21.906806   17.716834   21.728809 N.4        1 MOL1        -0.5891
       2    H1      22.139409   17.401165   20.782291 H          1 MOL1         0.3726
       3    H2      21.493523   16.917845   22.219177 H          1 MOL1         0.3726
       4    H3      22.794072   17.925785   22.197790 H          1 MOL1         0.3726
       5    C1      20.979981   18.916075   21.715725 C.3        1 MOL1         0.0314
       6    H4      21.494521   19.735293   21.206276 H          1 MOL1         0.0999
       7    H5      20.802293   19.214504   22.752164 H          1 MOL1         0.0999
       8    C2      19.635262   18.636050   21.017674 C.3        1 MOL1        -0.1308
       9    H6      19.826567   18.298702   19.990310 H          1 MOL1         0.1025
      10    H7      19.119251   17.812133   21.528343 H          1 MOL1         0.1025
      11    C3      18.714672   19.878147   20.976288 C.3        1 MOL1        -0.1243
      12    H8      17.812279   19.634513   20.398092 H          1 MOL1         0.1025
      13    H9      19.216667   20.693331   20.436233 H          1 MOL1         0.1025
      14    C4      18.296036   20.367086   22.381863 C.3        1 MOL1        -0.2258
      15    H10     17.796707   19.568307   22.945553 H          1 MOL1         0.1036
      16    H11     17.596378   21.209342   22.303831 H          1 MOL1         0.1036
      17    H12     19.160958   20.708660   22.964381 H          1 MOL1         0.1036
@<TRIPOS>BOND
    1     1     2    1
    2     1     3    1
    3     1     4    1
    4     1     5    1
    5     5     6    1
    6     5     7    1
    7     5     8    1
    8     8     9    1
    9     8    10    1
   10     8    11    1
   11    11    12    1
   12    11    13    1
   13    11    14    1
   14    14    15    1
   15    14    16    1
   16    14    17    1
@<TRIPOS>SUBSTRUCTURE
       1 MOL1            1 RESIDUE      1      MOL     
@<SCITEGIC>MOL_PROPERTY
VConf Rank
SciTegic.value.IntegerValue
878

@<SCITEGIC>MOL_PROPERTY
Conf_Id
SciTegic.value.IntegerValue
36

@<SCITEGIC>MOL_PROPERTY
Delta U+W
SciTegic.value.DoubleValue
0.275

@<SCITEGIC>MOL_PROPERTY
U+W
SciTegic.value.DoubleValue
-15.590

@<SCITEGIC>MOL_PROPERTY
Grad RMS
SciTegic.value.DoubleValue
0.000000

@<SCITEGIC>MOL_PROPERTY
U
SciTegic.value.DoubleValue
45.174

@<SCITEGIC>MOL_PROPERTY
W
SciTegic.value.DoubleValue
-60.765

@<SCITEGIC>MOL_PROPERTY
W(PB)
SciTegic.value.DoubleValue
-62.518

@<SCITEGIC>MOL_PROPERTY
W(SA)
SciTegic.value.DoubleValue
1.754

@<SCITEGIC>MOL_PROPERTY
Valence
SciTegic.value.DoubleValue
1.161

@<SCITEGIC>MOL_PROPERTY
Coulomb
SciTegic.value.DoubleValue
43.789

@<SCITEGIC>MOL_PROPERTY
VdW
SciTegic.value.DoubleValue
0.224

@<SCITEGIC>MOL_PROPERTY
VdW6
SciTegic.value.DoubleValue
-2.897

@<SCITEGIC>MOL_PROPERTY
VdW12
SciTegic.value.DoubleValue
3.121

@<SCITEGIC>MOL_PROPERTY
Bond
SciTegic.value.DoubleValue
0.100

@<SCITEGIC>MOL_PROPERTY
Angle
SciTegic.value.DoubleValue
0.500

@<SCITEGIC>MOL_PROPERTY
Pdih
SciTegic.value.DoubleValue
0.561

@<SCITEGIC>MOL_PROPERTY
Idih
SciTegic.value.DoubleValue
0.000

@<SCITEGIC>MOL_PROPERTY
Tether
SciTegic.value.DoubleValue
0.000

@<TRIPOS>MOLECULE
guest-1_confgen4.mol2 : confsearch ligand conformer 879
          17          16           1
SMALL
USER_CHARGES
 
@<TRIPOS>ATOM
       1    N1      19.789437   17.141821   21.765643 N.4        1 MOL1        -0.5891
       2    H1      19.002907   17.619253   22.213163 H          1 MOL1         0.3726
       3    H2      20.439738   16.870425   22.509236 H          1 MOL1         0.3726
       4    H3      19.424847   16.274583   21.358464 H          1 MOL1         0.3726
       5    C1      20.458788   18.016693   20.723242 C.3        1 MOL1         0.0314
       6    H4      19.740389   18.217370   19.923908 H          1 MOL1         0.0999
       7    H5      21.282359   17.435747   20.299249 H          1 MOL1         0.0999
       8    C2      21.013385   19.347633   21.273363 C.3        1 MOL1        -0.1308
       9    H6      21.534396   19.173083   22.224052 H          1 MOL1         0.1025
      10    H7      21.778385   19.706927   20.572271 H          1 MOL1         0.1025
      11    C3      19.953593   20.466913   21.436939 C.3        1 MOL1        -0.1243
      12    H8      19.483949   20.676032   20.465483 H          1 MOL1         0.1025
      13    H9      20.469700   21.391906   21.730213 H          1 MOL1         0.1025
      14    C4      18.858027   20.161615   22.483558 C.3        1 MOL1        -0.2258
      15    H10     18.179224   19.373568   22.137316 H          1 MOL1         0.1036
      16    H11     18.247312   21.055252   22.666853 H          1 MOL1         0.1036
      17    H12     19.296763   19.855897   23.442307 H          1 MOL1         0.1036
@<TRIPOS>BOND
    1     1     2    1
    2     1     3    1
    3     1     4    1
    4     1     5    1
    5     5     6    1
    6     5     7    1
    7     5     8    1
    8     8     9    1
    9     8    10    1
   10     8    11    1
   11    11    12    1
   12    11    13    1
   13    11    14    1
   14    14    15    1
   15    14    16    1
   16    14    17    1
@<TRIPOS>SUBSTRUCTURE
       1 MOL1            1 RESIDUE      1      MOL     
@<SCITEGIC>MOL_PROPERTY
VConf Rank
SciTegic.value.IntegerValue
879

@<SCITEGIC>MOL_PROPERTY
Conf_Id
SciTegic.value.IntegerValue
19

@<SCITEGIC>MOL_PROPERTY
Delta U+W
SciTegic.value.DoubleValue
2.662

@<SCITEGIC>MOL_PROPERTY
U+W
SciTegic.value.DoubleValue
-13.203

@<SCITEGIC>MOL_PROPERTY
Grad RMS
SciTegic.value.DoubleValue
0.000000

@<SCITEGIC>MOL_PROPERTY
U
SciTegic.value.DoubleValue
47.423

@<SCITEGIC>MOL_PROPERTY
W
SciTegic.value.DoubleValue
-60.626

@<SCITEGIC>MOL_PROPERTY
W(PB)
SciTegic.value.DoubleValue
-62.328

@<SCITEGIC>MOL_PROPERTY
W(SA)
SciTegic.value.DoubleValue
1.702

@<SCITEGIC>MOL_PROPERTY
Valence
SciTegic.value.DoubleValue
2.414

@<SCITEGIC>MOL_PROPERTY
Coulomb
SciTegic.value.DoubleValue
44.831

@<SCITEGIC>MOL_PROPERTY
VdW
SciTegic.value.DoubleValue
0.178

@<SCITEGIC>MOL_PROPERTY
VdW6
SciTegic.value.DoubleValue
-3.743

@<SCITEGIC>MOL_PROPERTY
VdW12
SciTegic.value.DoubleValue
3.921

@<SCITEGIC>MOL_PROPERTY
Bond
SciTegic.value.DoubleValue
0.138

@<SCITEGIC>MOL_PROPERTY
Angle
SciTegic.value.DoubleValue
0.941

@<SCITEGIC>MOL_PROPERTY
Pdih
SciTegic.value.DoubleValue
1.335

@<SCITEGIC>MOL_PROPERTY
Idih
SciTegic.value.DoubleValue
0.000

@<SCITEGIC>MOL_PROPERTY
Tether
SciTegic.value.DoubleValue
0.000

@<TRIPOS>MOLECULE
guest-1_confgen4.mol2 : confsearch ligand conformer 880
          17          16           1
SMALL
USER_CHARGES
 
@<TRIPOS>ATOM
       1    N1      18.759896   20.477998   21.161094 N.4        1 MOL1        -0.5891
       2    H1      17.797767   20.781326   20.979094 H          1 MOL1         0.3726
       3    H2      19.373463   21.243866   20.867050 H          1 MOL1         0.3726
       4    H3      18.860269   20.384335   22.174995 H          1 MOL1         0.3726
       5    C1      19.089188   19.184191   20.441602 C.3        1 MOL1         0.0314
       6    H4      18.959534   19.371086   19.372118 H          1 MOL1         0.0999
       7    H5      18.362994   18.424182   20.742154 H          1 MOL1         0.0999
       8    C2      20.521223   18.666060   20.691453 C.3        1 MOL1        -0.1308
       9    H6      20.779282   17.985405   19.869284 H          1 MOL1         0.1025
      10    H7      21.237037   19.496517   20.630795 H          1 MOL1         0.1025
      11    C3      20.702268   17.894417   22.023554 C.3        1 MOL1        -0.1243
      12    H8      21.721259   17.483357   22.049579 H          1 MOL1         0.1025
      13    H9      20.025002   17.029027   22.044356 H          1 MOL1         0.1025
      14    C4      20.484083   18.749751   23.292285 C.3        1 MOL1        -0.2258
      15    H10     21.077769   19.672523   23.257905 H          1 MOL1         0.1036
      16    H11     20.790177   18.190112   24.185742 H          1 MOL1         0.1036
      17    H12     19.427999   19.012694   23.423542 H          1 MOL1         0.1036
@<TRIPOS>BOND
    1     1     2    1
    2     1     3    1
    3     1     4    1
    4     1     5    1
    5     5     6    1
    6     5     7    1
    7     5     8    1
    8     8     9    1
    9     8    10    1
   10     8    11    1
   11    11    12    1
   12    11    13    1
   13    11    14    1
   14    14    15    1
   15    14    16    1
   16    14    17    1
@<TRIPOS>SUBSTRUCTURE
       1 MOL1            1 RESIDUE      1      MOL     
@<SCITEGIC>MOL_PROPERTY
VConf Rank
SciTegic.value.IntegerValue
880

@<SCITEGIC>MOL_PROPERTY
Conf_Id
SciTegic.value.IntegerValue
44

@<SCITEGIC>MOL_PROPERTY
Delta U+W
SciTegic.value.DoubleValue
2.712

@<SCITEGIC>MOL_PROPERTY
U+W
SciTegic.value.DoubleValue
-13.153

@<SCITEGIC>MOL_PROPERTY
Grad RMS
SciTegic.value.DoubleValue
0.000000

@<SCITEGIC>MOL_PROPERTY
U
SciTegic.value.DoubleValue
47.423

@<SCITEGIC>MOL_PROPERTY
W
SciTegic.value.DoubleValue
-60.576

@<SCITEGIC>MOL_PROPERTY
W(PB)
SciTegic.value.DoubleValue
-62.262

@<SCITEGIC>MOL_PROPERTY
W(SA)
SciTegic.value.DoubleValue
1.687

@<SCITEGIC>MOL_PROPERTY
Valence
SciTegic.value.DoubleValue
2.414

@<SCITEGIC>MOL_PROPERTY
Coulomb
SciTegic.value.DoubleValue
44.831

@<SCITEGIC>MOL_PROPERTY
VdW
SciTegic.value.DoubleValue
0.178

@<SCITEGIC>MOL_PROPERTY
VdW6
SciTegic.value.DoubleValue
-3.743

@<SCITEGIC>MOL_PROPERTY
VdW12
SciTegic.value.DoubleValue
3.922

@<SCITEGIC>MOL_PROPERTY
Bond
SciTegic.value.DoubleValue
0.138

@<SCITEGIC>MOL_PROPERTY
Angle
SciTegic.value.DoubleValue
0.941

@<SCITEGIC>MOL_PROPERTY
Pdih
SciTegic.value.DoubleValue
1.335

@<SCITEGIC>MOL_PROPERTY
Idih
SciTegic.value.DoubleValue
0.000

@<SCITEGIC>MOL_PROPERTY
Tether
SciTegic.value.DoubleValue
0.000

@<TRIPOS>MOLECULE
guest-1_confgen4.mol2 : confsearch ligand conformer 881
          17          16           1
SMALL
USER_CHARGES
 
@<TRIPOS>ATOM
       1    N1      20.533780   20.646985   20.608636 N.4        1 MOL1        -0.5891
       2    H1      21.369888   20.118388   20.873127 H          1 MOL1         0.3726
       3    H2      20.506260   21.484745   21.197516 H          1 MOL1         0.3726
       4    H3      20.673693   20.965435   19.644436 H          1 MOL1         0.3726
       5    C1      19.274368   19.814133   20.750399 C.3        1 MOL1         0.0314
       6    H4      19.356627   18.956998   20.077081 H          1 MOL1         0.0999
       7    H5      18.431468   20.425755   20.417265 H          1 MOL1         0.0999
       8    C2      19.011566   19.322422   22.188827 C.3        1 MOL1        -0.1308
       9    H6      18.890014   20.190691   22.849950 H          1 MOL1         0.1025
      10    H7      18.052761   18.787493   22.207484 H          1 MOL1         0.1025
      11    C3      20.120835   18.399160   22.751557 C.3        1 MOL1        -0.1243
      12    H8      19.855558   18.113138   23.779041 H          1 MOL1         0.1025
      13    H9      21.068675   18.949434   22.825397 H          1 MOL1         0.1025
      14    C4      20.326620   17.118185   21.910989 C.3        1 MOL1        -0.2258
      15    H10     19.391869   16.549294   21.823400 H          1 MOL1         0.1036
      16    H11     21.073082   16.464940   22.381131 H          1 MOL1         0.1036
      17    H12     20.681579   17.351567   20.899314 H          1 MOL1         0.1036
@<TRIPOS>BOND
    1     1     2    1
    2     1     3    1
    3     1     4    1
    4     1     5    1
    5     5     6    1
    6     5     7    1
    7     5     8    1
    8     8     9    1
    9     8    10    1
   10     8    11    1
   11    11    12    1
   12    11    13    1
   13    11    14    1
   14    14    15    1
   15    14    16    1
   16    14    17    1
@<TRIPOS>SUBSTRUCTURE
       1 MOL1            1 RESIDUE      1      MOL     
@<SCITEGIC>MOL_PROPERTY
VConf Rank
SciTegic.value.IntegerValue
881

@<SCITEGIC>MOL_PROPERTY
Conf_Id
SciTegic.value.IntegerValue
1

@<SCITEGIC>MOL_PROPERTY
Delta U+W
SciTegic.value.DoubleValue
0.685

@<SCITEGIC>MOL_PROPERTY
U+W
SciTegic.value.DoubleValue
-15.179

@<SCITEGIC>MOL_PROPERTY
Grad RMS
SciTegic.value.DoubleValue
0.000000

@<SCITEGIC>MOL_PROPERTY
U
SciTegic.value.DoubleValue
45.697

@<SCITEGIC>MOL_PROPERTY
W
SciTegic.value.DoubleValue
-60.876

@<SCITEGIC>MOL_PROPERTY
W(PB)
SciTegic.value.DoubleValue
-62.586

@<SCITEGIC>MOL_PROPERTY
W(SA)
SciTegic.value.DoubleValue
1.710

@<SCITEGIC>MOL_PROPERTY
Valence
SciTegic.value.DoubleValue
1.263

@<SCITEGIC>MOL_PROPERTY
Coulomb
SciTegic.value.DoubleValue
44.179

@<SCITEGIC>MOL_PROPERTY
VdW
SciTegic.value.DoubleValue
0.255

@<SCITEGIC>MOL_PROPERTY
VdW6
SciTegic.value.DoubleValue
-3.552

@<SCITEGIC>MOL_PROPERTY
VdW12
SciTegic.value.DoubleValue
3.807

@<SCITEGIC>MOL_PROPERTY
Bond
SciTegic.value.DoubleValue
0.125

@<SCITEGIC>MOL_PROPERTY
Angle
SciTegic.value.DoubleValue
0.616

@<SCITEGIC>MOL_PROPERTY
Pdih
SciTegic.value.DoubleValue
0.521

@<SCITEGIC>MOL_PROPERTY
Idih
SciTegic.value.DoubleValue
0.000

@<SCITEGIC>MOL_PROPERTY
Tether
SciTegic.value.DoubleValue
0.000

@<TRIPOS>MOLECULE
guest-1_confgen4.mol2 : confsearch ligand conformer 882
          17          16           1
SMALL
USER_CHARGES
 
@<TRIPOS>ATOM
       1    N1      20.114175   21.006786   21.557658 N.4        1 MOL1        -0.5891
       2    H1      20.714453   21.343329   22.316461 H          1 MOL1         0.3726
       3    H2      19.197908   20.800309   21.965420 H          1 MOL1         0.3726
       4    H3      19.983955   21.791309   20.910947 H          1 MOL1         0.3726
       5    C1      20.705835   19.795475   20.863020 C.3        1 MOL1         0.0314
       6    H4      21.659573   20.097500   20.421768 H          1 MOL1         0.0999
       7    H5      20.033646   19.508175   20.050353 H          1 MOL1         0.0999
       8    C2      20.934908   18.590865   21.799160 C.3        1 MOL1        -0.1308
       9    H6      21.421946   17.789586   21.227715 H          1 MOL1         0.1025
      10    H7      21.642783   18.877172   22.588267 H          1 MOL1         0.1025
      11    C3      19.639454   18.040192   22.445779 C.3        1 MOL1        -0.1243
      12    H8      19.188235   18.802402   23.095464 H          1 MOL1         0.1025
      13    H9      19.901851   17.198913   23.102515 H          1 MOL1         0.1025
      14    C4      18.600425   17.560725   21.406390 C.3        1 MOL1        -0.2258
      15    H10     17.729295   17.119716   21.907999 H          1 MOL1         0.1036
      16    H11     19.028034   16.796302   20.744669 H          1 MOL1         0.1036
      17    H12     18.239511   18.389286   20.784156 H          1 MOL1         0.1036
@<TRIPOS>BOND
    1     1     2    1
    2     1     3    1
    3     1     4    1
    4     1     5    1
    5     5     6    1
    6     5     7    1
    7     5     8    1
    8     8     9    1
    9     8    10    1
   10     8    11    1
   11    11    12    1
   12    11    13    1
   13    11    14    1
   14    14    15    1
   15    14    16    1
   16    14    17    1
@<TRIPOS>SUBSTRUCTURE
       1 MOL1            1 RESIDUE      1      MOL     
@<SCITEGIC>MOL_PROPERTY
VConf Rank
SciTegic.value.IntegerValue
882

@<SCITEGIC>MOL_PROPERTY
Conf_Id
SciTegic.value.IntegerValue
43

@<SCITEGIC>MOL_PROPERTY
Delta U+W
SciTegic.value.DoubleValue
0.642

@<SCITEGIC>MOL_PROPERTY
U+W
SciTegic.value.DoubleValue
-15.222

@<SCITEGIC>MOL_PROPERTY
Grad RMS
SciTegic.value.DoubleValue
0.000000

@<SCITEGIC>MOL_PROPERTY
U
SciTegic.value.DoubleValue
45.697

@<SCITEGIC>MOL_PROPERTY
W
SciTegic.value.DoubleValue
-60.919

@<SCITEGIC>MOL_PROPERTY
W(PB)
SciTegic.value.DoubleValue
-62.631

@<SCITEGIC>MOL_PROPERTY
W(SA)
SciTegic.value.DoubleValue
1.712

@<SCITEGIC>MOL_PROPERTY
Valence
SciTegic.value.DoubleValue
1.262

@<SCITEGIC>MOL_PROPERTY
Coulomb
SciTegic.value.DoubleValue
44.179

@<SCITEGIC>MOL_PROPERTY
VdW
SciTegic.value.DoubleValue
0.255

@<SCITEGIC>MOL_PROPERTY
VdW6
SciTegic.value.DoubleValue
-3.552

@<SCITEGIC>MOL_PROPERTY
VdW12
SciTegic.value.DoubleValue
3.807

@<SCITEGIC>MOL_PROPERTY
Bond
SciTegic.value.DoubleValue
0.125

@<SCITEGIC>MOL_PROPERTY
Angle
SciTegic.value.DoubleValue
0.616

@<SCITEGIC>MOL_PROPERTY
Pdih
SciTegic.value.DoubleValue
0.521

@<SCITEGIC>MOL_PROPERTY
Idih
SciTegic.value.DoubleValue
0.000

@<SCITEGIC>MOL_PROPERTY
Tether
SciTegic.value.DoubleValue
0.000

@<TRIPOS>MOLECULE
guest-1_confgen4.mol2 : confsearch ligand conformer 883
          17          16           1
SMALL
USER_CHARGES
 
@<TRIPOS>ATOM
       1    N1      19.090862   20.673317   19.802634 N.4        1 MOL1        -0.5891
       2    H1      19.854818   21.353931   19.855841 H          1 MOL1         0.3726
       3    H2      18.306374   21.059458   20.336649 H          1 MOL1         0.3726
       4    H3      18.793134   20.638235   18.822310 H          1 MOL1         0.3726
       5    C1      19.509023   19.309046   20.313772 C.3        1 MOL1         0.0314
       6    H4      20.324506   18.947133   19.681688 H          1 MOL1         0.0999
       7    H5      18.659436   18.630461   20.198671 H          1 MOL1         0.0999
       8    C2      19.962708   19.325217   21.784884 C.3        1 MOL1        -0.1308
       9    H6      20.805940   20.019342   21.899517 H          1 MOL1         0.1025
      10    H7      19.146560   19.703615   22.414732 H          1 MOL1         0.1025
      11    C3      20.379608   17.917687   22.265064 C.3        1 MOL1        -0.1243
      12    H8      21.194311   17.536998   21.632877 H          1 MOL1         0.1025
      13    H9      19.536947   17.221673   22.147536 H          1 MOL1         0.1025
      14    C4      20.836034   17.926114   23.740042 C.3        1 MOL1        -0.2258
      15    H10     21.127738   16.917850   24.061540 H          1 MOL1         0.1036
      16    H11     20.029998   18.269851   24.401373 H          1 MOL1         0.1036
      17    H12     21.700412   18.587718   23.882653 H          1 MOL1         0.1036
@<TRIPOS>BOND
    1     1     2    1
    2     1     3    1
    3     1     4    1
    4     1     5    1
    5     5     6    1
    6     5     7    1
    7     5     8    1
    8     8     9    1
    9     8    10    1
   10     8    11    1
   11    11    12    1
   12    11    13    1
   13    11    14    1
   14    14    15    1
   15    14    16    1
   16    14    17    1
@<TRIPOS>SUBSTRUCTURE
       1 MOL1            1 RESIDUE      1      MOL     
@<SCITEGIC>MOL_PROPERTY
VConf Rank
SciTegic.value.IntegerValue
883

@<SCITEGIC>MOL_PROPERTY
Conf_Id
SciTegic.value.IntegerValue
7

@<SCITEGIC>MOL_PROPERTY
Delta U+W
SciTegic.value.DoubleValue
0.000

@<SCITEGIC>MOL_PROPERTY
U+W
SciTegic.value.DoubleValue
-15.865

@<SCITEGIC>MOL_PROPERTY
Grad RMS
SciTegic.value.DoubleValue
0.000000

@<SCITEGIC>MOL_PROPERTY
U
SciTegic.value.DoubleValue
44.664

@<SCITEGIC>MOL_PROPERTY
W
SciTegic.value.DoubleValue
-60.529

@<SCITEGIC>MOL_PROPERTY
W(PB)
SciTegic.value.DoubleValue
-62.309

@<SCITEGIC>MOL_PROPERTY
W(SA)
SciTegic.value.DoubleValue
1.780

@<SCITEGIC>MOL_PROPERTY
Valence
SciTegic.value.DoubleValue
0.872

@<SCITEGIC>MOL_PROPERTY
Coulomb
SciTegic.value.DoubleValue
43.648

@<SCITEGIC>MOL_PROPERTY
VdW
SciTegic.value.DoubleValue
0.144

@<SCITEGIC>MOL_PROPERTY
VdW6
SciTegic.value.DoubleValue
-2.370

@<SCITEGIC>MOL_PROPERTY
VdW12
SciTegic.value.DoubleValue
2.515

@<SCITEGIC>MOL_PROPERTY
Bond
SciTegic.value.DoubleValue
0.080

@<SCITEGIC>MOL_PROPERTY
Angle
SciTegic.value.DoubleValue
0.376

@<SCITEGIC>MOL_PROPERTY
Pdih
SciTegic.value.DoubleValue
0.416

@<SCITEGIC>MOL_PROPERTY
Idih
SciTegic.value.DoubleValue
0.000

@<SCITEGIC>MOL_PROPERTY
Tether
SciTegic.value.DoubleValue
0.000

@<TRIPOS>MOLECULE
guest-1_confgen4.mol2 : confsearch ligand conformer 884
          17          16           1
SMALL
USER_CHARGES
 
@<TRIPOS>ATOM
       1    N1      20.985074   20.636332   20.090866 N.4        1 MOL1        -0.5891
       2    H1      21.697494   21.168077   20.600132 H          1 MOL1         0.3726
       3    H2      20.186645   21.262481   19.949108 H          1 MOL1         0.3726
       4    H3      21.372325   20.435151   19.163284 H          1 MOL1         0.3726
       5    C1      20.590033   19.369720   20.823664 C.3        1 MOL1         0.0314
       6    H4      21.478974   18.739381   20.912353 H          1 MOL1         0.0999
       7    H5      19.855260   18.842027   20.210080 H          1 MOL1         0.0999
       8    C2      20.003115   19.636353   22.223090 C.3        1 MOL1        -0.1308
       9    H6      20.733132   20.201472   22.817727 H          1 MOL1         0.1025
      10    H7      19.111256   20.270832   22.134135 H          1 MOL1         0.1025
      11    C3      19.640621   18.334776   22.975753 C.3        1 MOL1        -0.1243
      12    H8      19.305474   18.590878   23.990676 H          1 MOL1         0.1025
      13    H9      20.539407   17.713368   23.094996 H          1 MOL1         0.1025
      14    C4      18.534019   17.517270   22.270718 C.3        1 MOL1        -0.2258
      15    H10     17.625518   18.118081   22.133690 H          1 MOL1         0.1036
      16    H11     18.265858   16.636657   22.868730 H          1 MOL1         0.1036
      17    H12     18.861175   17.160913   21.285798 H          1 MOL1         0.1036
@<TRIPOS>BOND
    1     1     2    1
    2     1     3    1
    3     1     4    1
    4     1     5    1
    5     5     6    1
    6     5     7    1
    7     5     8    1
    8     8     9    1
    9     8    10    1
   10     8    11    1
   11    11    12    1
   12    11    13    1
   13    11    14    1
   14    14    15    1
   15    14    16    1
   16    14    17    1
@<TRIPOS>SUBSTRUCTURE
       1 MOL1            1 RESIDUE      1      MOL     
@<SCITEGIC>MOL_PROPERTY
VConf Rank
SciTegic.value.IntegerValue
884

@<SCITEGIC>MOL_PROPERTY
Conf_Id
SciTegic.value.IntegerValue
36

@<SCITEGIC>MOL_PROPERTY
Delta U+W
SciTegic.value.DoubleValue
0.275

@<SCITEGIC>MOL_PROPERTY
U+W
SciTegic.value.DoubleValue
-15.590

@<SCITEGIC>MOL_PROPERTY
Grad RMS
SciTegic.value.DoubleValue
0.000000

@<SCITEGIC>MOL_PROPERTY
U
SciTegic.value.DoubleValue
45.174

@<SCITEGIC>MOL_PROPERTY
W
SciTegic.value.DoubleValue
-60.765

@<SCITEGIC>MOL_PROPERTY
W(PB)
SciTegic.value.DoubleValue
-62.518

@<SCITEGIC>MOL_PROPERTY
W(SA)
SciTegic.value.DoubleValue
1.754

@<SCITEGIC>MOL_PROPERTY
Valence
SciTegic.value.DoubleValue
1.161

@<SCITEGIC>MOL_PROPERTY
Coulomb
SciTegic.value.DoubleValue
43.789

@<SCITEGIC>MOL_PROPERTY
VdW
SciTegic.value.DoubleValue
0.224

@<SCITEGIC>MOL_PROPERTY
VdW6
SciTegic.value.DoubleValue
-2.897

@<SCITEGIC>MOL_PROPERTY
VdW12
SciTegic.value.DoubleValue
3.121

@<SCITEGIC>MOL_PROPERTY
Bond
SciTegic.value.DoubleValue
0.100

@<SCITEGIC>MOL_PROPERTY
Angle
SciTegic.value.DoubleValue
0.500

@<SCITEGIC>MOL_PROPERTY
Pdih
SciTegic.value.DoubleValue
0.561

@<SCITEGIC>MOL_PROPERTY
Idih
SciTegic.value.DoubleValue
0.000

@<SCITEGIC>MOL_PROPERTY
Tether
SciTegic.value.DoubleValue
0.000

@<TRIPOS>MOLECULE
guest-1_confgen4.mol2 : confsearch ligand conformer 885
          17          16           1
SMALL
USER_CHARGES
 
@<TRIPOS>ATOM
       1    N1      20.229728   19.590441   23.335405 N.4        1 MOL1        -0.5891
       2    H1      21.106517   19.527278   22.811863 H          1 MOL1         0.3726
       3    H2      20.176949   18.762052   23.935794 H          1 MOL1         0.3726
       4    H3      20.305746   20.402880   23.955878 H          1 MOL1         0.3726
       5    C1      19.030425   19.695237   22.413061 C.3        1 MOL1         0.0314
       6    H4      19.106123   20.628284   21.848264 H          1 MOL1         0.0999
       7    H5      18.142683   19.756069   23.048476 H          1 MOL1         0.0999
       8    C2      18.872213   18.507396   21.440633 C.3        1 MOL1        -0.1308
       9    H6      19.044017   17.561785   21.971700 H          1 MOL1         0.1025
      10    H7      17.825069   18.481686   21.110974 H          1 MOL1         0.1025
      11    C3      19.767539   18.586911   20.177790 C.3        1 MOL1        -0.1243
      12    H8      19.541004   19.507366   19.621494 H          1 MOL1         0.1025
      13    H9      19.499826   17.755281   19.510923 H          1 MOL1         0.1025
      14    C4      21.284735   18.518771   20.464767 C.3        1 MOL1        -0.2258
      15    H10     21.643811   19.433494   20.950588 H          1 MOL1         0.1036
      16    H11     21.844922   18.410958   19.526831 H          1 MOL1         0.1036
      17    H12     21.531893   17.658827   21.100820 H          1 MOL1         0.1036
@<TRIPOS>BOND
    1     1     2    1
    2     1     3    1
    3     1     4    1
    4     1     5    1
    5     5     6    1
    6     5     7    1
    7     5     8    1
    8     8     9    1
    9     8    10    1
   10     8    11    1
   11    11    12    1
   12    11    13    1
   13    11    14    1
   14    14    15    1
   15    14    16    1
   16    14    17    1
@<TRIPOS>SUBSTRUCTURE
       1 MOL1            1 RESIDUE      1      MOL     
@<SCITEGIC>MOL_PROPERTY
VConf Rank
SciTegic.value.IntegerValue
885

@<SCITEGIC>MOL_PROPERTY
Conf_Id
SciTegic.value.IntegerValue
19

@<SCITEGIC>MOL_PROPERTY
Delta U+W
SciTegic.value.DoubleValue
2.662

@<SCITEGIC>MOL_PROPERTY
U+W
SciTegic.value.DoubleValue
-13.203

@<SCITEGIC>MOL_PROPERTY
Grad RMS
SciTegic.value.DoubleValue
0.000000

@<SCITEGIC>MOL_PROPERTY
U
SciTegic.value.DoubleValue
47.423

@<SCITEGIC>MOL_PROPERTY
W
SciTegic.value.DoubleValue
-60.626

@<SCITEGIC>MOL_PROPERTY
W(PB)
SciTegic.value.DoubleValue
-62.328

@<SCITEGIC>MOL_PROPERTY
W(SA)
SciTegic.value.DoubleValue
1.702

@<SCITEGIC>MOL_PROPERTY
Valence
SciTegic.value.DoubleValue
2.414

@<SCITEGIC>MOL_PROPERTY
Coulomb
SciTegic.value.DoubleValue
44.831

@<SCITEGIC>MOL_PROPERTY
VdW
SciTegic.value.DoubleValue
0.178

@<SCITEGIC>MOL_PROPERTY
VdW6
SciTegic.value.DoubleValue
-3.743

@<SCITEGIC>MOL_PROPERTY
VdW12
SciTegic.value.DoubleValue
3.921

@<SCITEGIC>MOL_PROPERTY
Bond
SciTegic.value.DoubleValue
0.138

@<SCITEGIC>MOL_PROPERTY
Angle
SciTegic.value.DoubleValue
0.941

@<SCITEGIC>MOL_PROPERTY
Pdih
SciTegic.value.DoubleValue
1.335

@<SCITEGIC>MOL_PROPERTY
Idih
SciTegic.value.DoubleValue
0.000

@<SCITEGIC>MOL_PROPERTY
Tether
SciTegic.value.DoubleValue
0.000

@<TRIPOS>MOLECULE
guest-1_confgen4.mol2 : confsearch ligand conformer 886
          17          16           1
SMALL
USER_CHARGES
 
@<TRIPOS>ATOM
       1    N1      19.381670   18.008962   20.151874 N.4        1 MOL1        -0.5891
       2    H1      19.181040   17.062734   19.812428 H          1 MOL1         0.3726
       3    H2      19.448448   18.612579   19.326848 H          1 MOL1         0.3726
       4    H3      18.565089   18.317808   20.685402 H          1 MOL1         0.3726
       5    C1      20.647567   18.052534   20.985928 C.3        1 MOL1         0.0314
       6    H4      21.464967   17.711841   20.344585 H          1 MOL1         0.0999
       7    H5      20.546039   17.341431   21.810141 H          1 MOL1         0.0999
       8    C2      20.993476   19.450141   21.541493 C.3        1 MOL1        -0.1308
       9    H6      22.064940   19.459215   21.781764 H          1 MOL1         0.1025
      10    H7      20.853446   20.209765   20.761049 H          1 MOL1         0.1025
      11    C3      20.214495   19.843399   22.822602 C.3        1 MOL1        -0.1243
      12    H8      20.610944   20.801020   23.188362 H          1 MOL1         0.1025
      13    H9      20.413446   19.109337   23.616071 H          1 MOL1         0.1025
      14    C4      18.688374   19.986214   22.624008 C.3        1 MOL1        -0.2258
      15    H10     18.456549   20.641447   21.774255 H          1 MOL1         0.1036
      16    H11     18.227741   20.425510   23.518431 H          1 MOL1         0.1036
      17    H12     18.210981   19.012910   22.461361 H          1 MOL1         0.1036
@<TRIPOS>BOND
    1     1     2    1
    2     1     3    1
    3     1     4    1
    4     1     5    1
    5     5     6    1
    6     5     7    1
    7     5     8    1
    8     8     9    1
    9     8    10    1
   10     8    11    1
   11    11    12    1
   12    11    13    1
   13    11    14    1
   14    14    15    1
   15    14    16    1
   16    14    17    1
@<TRIPOS>SUBSTRUCTURE
       1 MOL1            1 RESIDUE      1      MOL     
@<SCITEGIC>MOL_PROPERTY
VConf Rank
SciTegic.value.IntegerValue
886

@<SCITEGIC>MOL_PROPERTY
Conf_Id
SciTegic.value.IntegerValue
44

@<SCITEGIC>MOL_PROPERTY
Delta U+W
SciTegic.value.DoubleValue
2.712

@<SCITEGIC>MOL_PROPERTY
U+W
SciTegic.value.DoubleValue
-13.153

@<SCITEGIC>MOL_PROPERTY
Grad RMS
SciTegic.value.DoubleValue
0.000000

@<SCITEGIC>MOL_PROPERTY
U
SciTegic.value.DoubleValue
47.423

@<SCITEGIC>MOL_PROPERTY
W
SciTegic.value.DoubleValue
-60.576

@<SCITEGIC>MOL_PROPERTY
W(PB)
SciTegic.value.DoubleValue
-62.262

@<SCITEGIC>MOL_PROPERTY
W(SA)
SciTegic.value.DoubleValue
1.687

@<SCITEGIC>MOL_PROPERTY
Valence
SciTegic.value.DoubleValue
2.414

@<SCITEGIC>MOL_PROPERTY
Coulomb
SciTegic.value.DoubleValue
44.831

@<SCITEGIC>MOL_PROPERTY
VdW
SciTegic.value.DoubleValue
0.178

@<SCITEGIC>MOL_PROPERTY
VdW6
SciTegic.value.DoubleValue
-3.743

@<SCITEGIC>MOL_PROPERTY
VdW12
SciTegic.value.DoubleValue
3.922

@<SCITEGIC>MOL_PROPERTY
Bond
SciTegic.value.DoubleValue
0.138

@<SCITEGIC>MOL_PROPERTY
Angle
SciTegic.value.DoubleValue
0.941

@<SCITEGIC>MOL_PROPERTY
Pdih
SciTegic.value.DoubleValue
1.335

@<SCITEGIC>MOL_PROPERTY
Idih
SciTegic.value.DoubleValue
0.000

@<SCITEGIC>MOL_PROPERTY
Tether
SciTegic.value.DoubleValue
0.000

@<TRIPOS>MOLECULE
guest-1_confgen4.mol2 : confsearch ligand conformer 887
          17          16           1
SMALL
USER_CHARGES
 
@<TRIPOS>ATOM
       1    N1      18.071660   18.617887   22.196612 N.4        1 MOL1        -0.5891
       2    H1      18.061679   19.578261   21.841607 H          1 MOL1         0.3726
       3    H2      17.984825   18.670892   23.215939 H          1 MOL1         0.3726
       4    H3      17.222255   18.161513   21.848900 H          1 MOL1         0.3726
       5    C1      19.324449   17.875442   21.773345 C.3        1 MOL1         0.0314
       6    H4      19.339438   17.829885   20.681326 H          1 MOL1         0.0999
       7    H5      19.249791   16.852837   22.153138 H          1 MOL1         0.0999
       8    C2      20.631037   18.516260   22.285299 C.3        1 MOL1        -0.1308
       9    H6      20.624276   18.520433   23.383337 H          1 MOL1         0.1025
      10    H7      21.474709   17.879696   21.987292 H          1 MOL1         0.1025
      11    C3      20.871670   19.956154   21.767265 C.3        1 MOL1        -0.1243
      12    H8      21.812045   20.332922   22.193463 H          1 MOL1         0.1025
      13    H9      20.082624   20.626366   22.134520 H          1 MOL1         0.1025
      14    C4      20.949990   20.039815   20.225622 C.3        1 MOL1        -0.2258
      15    H10     21.733594   19.378340   19.833852 H          1 MOL1         0.1036
      16    H11     21.186055   21.063420   19.907072 H          1 MOL1         0.1036
      17    H12     19.998547   19.758640   19.756959 H          1 MOL1         0.1036
@<TRIPOS>BOND
    1     1     2    1
    2     1     3    1
    3     1     4    1
    4     1     5    1
    5     5     6    1
    6     5     7    1
    7     5     8    1
    8     8     9    1
    9     8    10    1
   10     8    11    1
   11    11    12    1
   12    11    13    1
   13    11    14    1
   14    14    15    1
   15    14    16    1
   16    14    17    1
@<TRIPOS>SUBSTRUCTURE
       1 MOL1            1 RESIDUE      1      MOL     
@<SCITEGIC>MOL_PROPERTY
VConf Rank
SciTegic.value.IntegerValue
887

@<SCITEGIC>MOL_PROPERTY
Conf_Id
SciTegic.value.IntegerValue
1

@<SCITEGIC>MOL_PROPERTY
Delta U+W
SciTegic.value.DoubleValue
0.685

@<SCITEGIC>MOL_PROPERTY
U+W
SciTegic.value.DoubleValue
-15.179

@<SCITEGIC>MOL_PROPERTY
Grad RMS
SciTegic.value.DoubleValue
0.000000

@<SCITEGIC>MOL_PROPERTY
U
SciTegic.value.DoubleValue
45.697

@<SCITEGIC>MOL_PROPERTY
W
SciTegic.value.DoubleValue
-60.876

@<SCITEGIC>MOL_PROPERTY
W(PB)
SciTegic.value.DoubleValue
-62.586

@<SCITEGIC>MOL_PROPERTY
W(SA)
SciTegic.value.DoubleValue
1.710

@<SCITEGIC>MOL_PROPERTY
Valence
SciTegic.value.DoubleValue
1.263

@<SCITEGIC>MOL_PROPERTY
Coulomb
SciTegic.value.DoubleValue
44.179

@<SCITEGIC>MOL_PROPERTY
VdW
SciTegic.value.DoubleValue
0.255

@<SCITEGIC>MOL_PROPERTY
VdW6
SciTegic.value.DoubleValue
-3.552

@<SCITEGIC>MOL_PROPERTY
VdW12
SciTegic.value.DoubleValue
3.807

@<SCITEGIC>MOL_PROPERTY
Bond
SciTegic.value.DoubleValue
0.125

@<SCITEGIC>MOL_PROPERTY
Angle
SciTegic.value.DoubleValue
0.616

@<SCITEGIC>MOL_PROPERTY
Pdih
SciTegic.value.DoubleValue
0.521

@<SCITEGIC>MOL_PROPERTY
Idih
SciTegic.value.DoubleValue
0.000

@<SCITEGIC>MOL_PROPERTY
Tether
SciTegic.value.DoubleValue
0.000

@<TRIPOS>MOLECULE
guest-1_confgen4.mol2 : confsearch ligand conformer 888
          17          16           1
SMALL
USER_CHARGES
 
@<TRIPOS>ATOM
       1    N1      21.058319   17.933044   20.391219 N.4        1 MOL1        -0.5891
       2    H1      20.665237   16.997043   20.254232 H          1 MOL1         0.3726
       3    H2      21.513982   17.938782   21.308163 H          1 MOL1         0.3726
       4    H3      21.796193   18.051555   19.689675 H          1 MOL1         0.3726
       5    C1      19.998994   19.012900   20.283516 C.3        1 MOL1         0.0314
       6    H4      19.583991   18.972585   19.272732 H          1 MOL1         0.0999
       7    H5      20.488316   19.982204   20.409285 H          1 MOL1         0.0999
       8    C2      18.856881   18.869516   21.310619 C.3        1 MOL1        -0.1308
       9    H6      18.109890   19.650639   21.116573 H          1 MOL1         0.1025
      10    H7      18.345711   17.911097   21.149726 H          1 MOL1         0.1025
      11    C3      19.320592   18.963498   22.785644 C.3        1 MOL1        -0.1243
      12    H8      19.999178   18.132590   23.021794 H          1 MOL1         0.1025
      13    H9      18.446732   18.836516   23.439975 H          1 MOL1         0.1025
      14    C4      20.007214   20.307569   23.120041 C.3        1 MOL1        -0.2258
      15    H10     20.259345   20.356081   24.187302 H          1 MOL1         0.1036
      16    H11     19.347257   21.154976   22.893269 H          1 MOL1         0.1036
      17    H12     20.938155   20.437444   22.553976 H          1 MOL1         0.1036
@<TRIPOS>BOND
    1     1     2    1
    2     1     3    1
    3     1     4    1
    4     1     5    1
    5     5     6    1
    6     5     7    1
    7     5     8    1
    8     8     9    1
    9     8    10    1
   10     8    11    1
   11    11    12    1
   12    11    13    1
   13    11    14    1
   14    14    15    1
   15    14    16    1
   16    14    17    1
@<TRIPOS>SUBSTRUCTURE
       1 MOL1            1 RESIDUE      1      MOL     
@<SCITEGIC>MOL_PROPERTY
VConf Rank
SciTegic.value.IntegerValue
888

@<SCITEGIC>MOL_PROPERTY
Conf_Id
SciTegic.value.IntegerValue
43

@<SCITEGIC>MOL_PROPERTY
Delta U+W
SciTegic.value.DoubleValue
0.642

@<SCITEGIC>MOL_PROPERTY
U+W
SciTegic.value.DoubleValue
-15.222

@<SCITEGIC>MOL_PROPERTY
Grad RMS
SciTegic.value.DoubleValue
0.000000

@<SCITEGIC>MOL_PROPERTY
U
SciTegic.value.DoubleValue
45.697

@<SCITEGIC>MOL_PROPERTY
W
SciTegic.value.DoubleValue
-60.919

@<SCITEGIC>MOL_PROPERTY
W(PB)
SciTegic.value.DoubleValue
-62.631

@<SCITEGIC>MOL_PROPERTY
W(SA)
SciTegic.value.DoubleValue
1.712

@<SCITEGIC>MOL_PROPERTY
Valence
SciTegic.value.DoubleValue
1.262

@<SCITEGIC>MOL_PROPERTY
Coulomb
SciTegic.value.DoubleValue
44.179

@<SCITEGIC>MOL_PROPERTY
VdW
SciTegic.value.DoubleValue
0.255

@<SCITEGIC>MOL_PROPERTY
VdW6
SciTegic.value.DoubleValue
-3.552

@<SCITEGIC>MOL_PROPERTY
VdW12
SciTegic.value.DoubleValue
3.807

@<SCITEGIC>MOL_PROPERTY
Bond
SciTegic.value.DoubleValue
0.125

@<SCITEGIC>MOL_PROPERTY
Angle
SciTegic.value.DoubleValue
0.616

@<SCITEGIC>MOL_PROPERTY
Pdih
SciTegic.value.DoubleValue
0.521

@<SCITEGIC>MOL_PROPERTY
Idih
SciTegic.value.DoubleValue
0.000

@<SCITEGIC>MOL_PROPERTY
Tether
SciTegic.value.DoubleValue
0.000

@<TRIPOS>MOLECULE
guest-1_confgen4.mol2 : confsearch ligand conformer 889
          17          16           1
SMALL
USER_CHARGES
 
@<TRIPOS>ATOM
       1    N1      18.595092   17.030289   20.820867 N.4        1 MOL1        -0.5891
       2    H1      19.049534   16.908339   19.910753 H          1 MOL1         0.3726
       3    H2      17.711114   17.520072   20.652363 H          1 MOL1         0.3726
       4    H3      18.354583   16.093173   21.159805 H          1 MOL1         0.3726
       5    C1      19.478847   17.774729   21.801755 C.3        1 MOL1         0.0314
       6    H4      20.384843   17.182510   21.956576 H          1 MOL1         0.0999
       7    H5      18.945625   17.840284   22.754068 H          1 MOL1         0.0999
       8    C2      19.859739   19.187751   21.323684 C.3        1 MOL1        -0.1308
       9    H6      20.381293   19.119046   20.359707 H          1 MOL1         0.1025
      10    H7      18.947044   19.774598   21.154600 H          1 MOL1         0.1025
      11    C3      20.759135   19.910392   22.350523 C.3        1 MOL1        -0.1243
      12    H8      21.671396   19.321780   22.522690 H          1 MOL1         0.1025
      13    H9      20.238880   19.976600   23.316586 H          1 MOL1         0.1025
      14    C4      21.145362   21.328564   21.877690 C.3        1 MOL1        -0.2258
      15    H10     21.783716   21.824584   22.620332 H          1 MOL1         0.1036
      16    H11     20.254217   21.952465   21.729992 H          1 MOL1         0.1036
      17    H12     21.697989   21.292470   20.929793 H          1 MOL1         0.1036
@<TRIPOS>BOND
    1     1     2    1
    2     1     3    1
    3     1     4    1
    4     1     5    1
    5     5     6    1
    6     5     7    1
    7     5     8    1
    8     8     9    1
    9     8    10    1
   10     8    11    1
   11    11    12    1
   12    11    13    1
   13    11    14    1
   14    14    15    1
   15    14    16    1
   16    14    17    1
@<TRIPOS>SUBSTRUCTURE
       1 MOL1            1 RESIDUE      1      MOL     
@<SCITEGIC>MOL_PROPERTY
VConf Rank
SciTegic.value.IntegerValue
889

@<SCITEGIC>MOL_PROPERTY
Conf_Id
SciTegic.value.IntegerValue
7

@<SCITEGIC>MOL_PROPERTY
Delta U+W
SciTegic.value.DoubleValue
0.000

@<SCITEGIC>MOL_PROPERTY
U+W
SciTegic.value.DoubleValue
-15.865

@<SCITEGIC>MOL_PROPERTY
Grad RMS
SciTegic.value.DoubleValue
0.000000

@<SCITEGIC>MOL_PROPERTY
U
SciTegic.value.DoubleValue
44.664

@<SCITEGIC>MOL_PROPERTY
W
SciTegic.value.DoubleValue
-60.529

@<SCITEGIC>MOL_PROPERTY
W(PB)
SciTegic.value.DoubleValue
-62.309

@<SCITEGIC>MOL_PROPERTY
W(SA)
SciTegic.value.DoubleValue
1.780

@<SCITEGIC>MOL_PROPERTY
Valence
SciTegic.value.DoubleValue
0.872

@<SCITEGIC>MOL_PROPERTY
Coulomb
SciTegic.value.DoubleValue
43.648

@<SCITEGIC>MOL_PROPERTY
VdW
SciTegic.value.DoubleValue
0.144

@<SCITEGIC>MOL_PROPERTY
VdW6
SciTegic.value.DoubleValue
-2.370

@<SCITEGIC>MOL_PROPERTY
VdW12
SciTegic.value.DoubleValue
2.515

@<SCITEGIC>MOL_PROPERTY
Bond
SciTegic.value.DoubleValue
0.080

@<SCITEGIC>MOL_PROPERTY
Angle
SciTegic.value.DoubleValue
0.376

@<SCITEGIC>MOL_PROPERTY
Pdih
SciTegic.value.DoubleValue
0.416

@<SCITEGIC>MOL_PROPERTY
Idih
SciTegic.value.DoubleValue
0.000

@<SCITEGIC>MOL_PROPERTY
Tether
SciTegic.value.DoubleValue
0.000

@<TRIPOS>MOLECULE
guest-1_confgen4.mol2 : confsearch ligand conformer 890
          17          16           1
SMALL
USER_CHARGES
 
@<TRIPOS>ATOM
       1    N1      18.487402   17.159835   21.580205 N.4        1 MOL1        -0.5891
       2    H1      17.521465   17.472177   21.442163 H          1 MOL1         0.3726
       3    H2      18.580158   16.896010   22.565821 H          1 MOL1         0.3726
       4    H3      18.602474   16.301597   21.031544 H          1 MOL1         0.3726
       5    C1      19.490687   18.223290   21.180404 C.3        1 MOL1         0.0314
       6    H4      19.355121   18.432639   20.115884 H          1 MOL1         0.0999
       7    H5      20.492653   17.810595   21.323880 H          1 MOL1         0.0999
       8    C2      19.345632   19.528091   21.986885 C.3        1 MOL1        -0.1308
       9    H6      18.323975   19.912787   21.868122 H          1 MOL1         0.1025
      10    H7      19.480131   19.317525   23.056212 H          1 MOL1         0.1025
      11    C3      20.348685   20.618378   21.542852 C.3        1 MOL1        -0.1243
      12    H8      20.139512   21.543385   22.098362 H          1 MOL1         0.1025
      13    H9      20.193082   20.854252   20.480622 H          1 MOL1         0.1025
      14    C4      21.822674   20.213728   21.774309 C.3        1 MOL1        -0.2258
      15    H10     22.003708   19.966730   22.828512 H          1 MOL1         0.1036
      16    H11     22.495176   21.037968   21.503429 H          1 MOL1         0.1036
      17    H12     22.102845   19.344786   21.165593 H          1 MOL1         0.1036
@<TRIPOS>BOND
    1     1     2    1
    2     1     3    1
    3     1     4    1
    4     1     5    1
    5     5     6    1
    6     5     7    1
    7     5     8    1
    8     8     9    1
    9     8    10    1
   10     8    11    1
   11    11    12    1
   12    11    13    1
   13    11    14    1
   14    14    15    1
   15    14    16    1
   16    14    17    1
@<TRIPOS>SUBSTRUCTURE
       1 MOL1            1 RESIDUE      1      MOL     
@<SCITEGIC>MOL_PROPERTY
VConf Rank
SciTegic.value.IntegerValue
890

@<SCITEGIC>MOL_PROPERTY
Conf_Id
SciTegic.value.IntegerValue
36

@<SCITEGIC>MOL_PROPERTY
Delta U+W
SciTegic.value.DoubleValue
0.275

@<SCITEGIC>MOL_PROPERTY
U+W
SciTegic.value.DoubleValue
-15.590

@<SCITEGIC>MOL_PROPERTY
Grad RMS
SciTegic.value.DoubleValue
0.000000

@<SCITEGIC>MOL_PROPERTY
U
SciTegic.value.DoubleValue
45.174

@<SCITEGIC>MOL_PROPERTY
W
SciTegic.value.DoubleValue
-60.765

@<SCITEGIC>MOL_PROPERTY
W(PB)
SciTegic.value.DoubleValue
-62.518

@<SCITEGIC>MOL_PROPERTY
W(SA)
SciTegic.value.DoubleValue
1.754

@<SCITEGIC>MOL_PROPERTY
Valence
SciTegic.value.DoubleValue
1.161

@<SCITEGIC>MOL_PROPERTY
Coulomb
SciTegic.value.DoubleValue
43.789

@<SCITEGIC>MOL_PROPERTY
VdW
SciTegic.value.DoubleValue
0.224

@<SCITEGIC>MOL_PROPERTY
VdW6
SciTegic.value.DoubleValue
-2.897

@<SCITEGIC>MOL_PROPERTY
VdW12
SciTegic.value.DoubleValue
3.121

@<SCITEGIC>MOL_PROPERTY
Bond
SciTegic.value.DoubleValue
0.100

@<SCITEGIC>MOL_PROPERTY
Angle
SciTegic.value.DoubleValue
0.500

@<SCITEGIC>MOL_PROPERTY
Pdih
SciTegic.value.DoubleValue
0.561

@<SCITEGIC>MOL_PROPERTY
Idih
SciTegic.value.DoubleValue
0.000

@<SCITEGIC>MOL_PROPERTY
Tether
SciTegic.value.DoubleValue
0.000

@<TRIPOS>MOLECULE
guest-1_confgen4.mol2 : confsearch ligand conformer 891
          17          16           1
SMALL
USER_CHARGES
 
@<TRIPOS>ATOM
       1    N1      21.320528   17.775769   21.324067 N.4        1 MOL1        -0.5891
       2    H1      21.676174   18.674543   21.659576 H          1 MOL1         0.3726
       3    H2      21.474970   17.749577   20.311673 H          1 MOL1         0.3726
       4    H3      21.910964   17.044806   21.733825 H          1 MOL1         0.3726
       5    C1      19.858033   17.582986   21.676161 C.3        1 MOL1         0.0314
       6    H4      19.763338   17.551312   22.764891 H          1 MOL1         0.0999
       7    H5      19.560308   16.607255   21.282656 H          1 MOL1         0.0999
       8    C2      18.919194   18.664605   21.101448 C.3        1 MOL1        -0.1308
       9    H6      19.183517   18.874754   20.056604 H          1 MOL1         0.1025
      10    H7      17.903518   18.247883   21.077160 H          1 MOL1         0.1025
      11    C3      18.875368   19.979314   21.921402 C.3        1 MOL1        -0.1243
      12    H8      18.548475   19.763670   22.948369 H          1 MOL1         0.1025
      13    H9      18.104483   20.631890   21.487962 H          1 MOL1         0.1025
      14    C4      20.212165   20.754224   21.958436 C.3        1 MOL1        -0.2258
      15    H10     20.962181   20.233881   22.565393 H          1 MOL1         0.1036
      16    H11     20.065267   21.745092   22.407610 H          1 MOL1         0.1036
      17    H12     20.614714   20.903157   20.948027 H          1 MOL1         0.1036
@<TRIPOS>BOND
    1     1     2    1
    2     1     3    1
    3     1     4    1
    4     1     5    1
    5     5     6    1
    6     5     7    1
    7     5     8    1
    8     8     9    1
    9     8    10    1
   10     8    11    1
   11    11    12    1
   12    11    13    1
   13    11    14    1
   14    14    15    1
   15    14    16    1
   16    14    17    1
@<TRIPOS>SUBSTRUCTURE
       1 MOL1            1 RESIDUE      1      MOL     
@<SCITEGIC>MOL_PROPERTY
VConf Rank
SciTegic.value.IntegerValue
891

@<SCITEGIC>MOL_PROPERTY
Conf_Id
SciTegic.value.IntegerValue
19

@<SCITEGIC>MOL_PROPERTY
Delta U+W
SciTegic.value.DoubleValue
2.662

@<SCITEGIC>MOL_PROPERTY
U+W
SciTegic.value.DoubleValue
-13.203

@<SCITEGIC>MOL_PROPERTY
Grad RMS
SciTegic.value.DoubleValue
0.000000

@<SCITEGIC>MOL_PROPERTY
U
SciTegic.value.DoubleValue
47.423

@<SCITEGIC>MOL_PROPERTY
W
SciTegic.value.DoubleValue
-60.626

@<SCITEGIC>MOL_PROPERTY
W(PB)
SciTegic.value.DoubleValue
-62.328

@<SCITEGIC>MOL_PROPERTY
W(SA)
SciTegic.value.DoubleValue
1.702

@<SCITEGIC>MOL_PROPERTY
Valence
SciTegic.value.DoubleValue
2.414

@<SCITEGIC>MOL_PROPERTY
Coulomb
SciTegic.value.DoubleValue
44.831

@<SCITEGIC>MOL_PROPERTY
VdW
SciTegic.value.DoubleValue
0.178

@<SCITEGIC>MOL_PROPERTY
VdW6
SciTegic.value.DoubleValue
-3.743

@<SCITEGIC>MOL_PROPERTY
VdW12
SciTegic.value.DoubleValue
3.921

@<SCITEGIC>MOL_PROPERTY
Bond
SciTegic.value.DoubleValue
0.138

@<SCITEGIC>MOL_PROPERTY
Angle
SciTegic.value.DoubleValue
0.941

@<SCITEGIC>MOL_PROPERTY
Pdih
SciTegic.value.DoubleValue
1.335

@<SCITEGIC>MOL_PROPERTY
Idih
SciTegic.value.DoubleValue
0.000

@<SCITEGIC>MOL_PROPERTY
Tether
SciTegic.value.DoubleValue
0.000

@<TRIPOS>MOLECULE
guest-1_confgen4.mol2 : confsearch ligand conformer 892
          17          16           1
SMALL
USER_CHARGES
 
@<TRIPOS>ATOM
       1    N1      20.892341   17.502340   21.590139 N.4        1 MOL1        -0.5891
       2    H1      21.787424   17.063281   21.828631 H          1 MOL1         0.3726
       3    H2      20.385816   16.839983   20.994995 H          1 MOL1         0.3726
       4    H3      20.360023   17.594080   22.459084 H          1 MOL1         0.3726
       5    C1      21.085653   18.841542   20.905153 C.3        1 MOL1         0.0314
       6    H4      21.657186   18.654143   19.992044 H          1 MOL1         0.0999
       7    H5      21.688172   19.481393   21.555433 H          1 MOL1         0.0999
       8    C2      19.771182   19.561284   20.536712 C.3        1 MOL1        -0.1308
       9    H6      19.997019   20.285196   19.742487 H          1 MOL1         0.1025
      10    H7      19.061339   18.846520   20.099716 H          1 MOL1         0.1025
      11    C3      19.109321   20.330481   21.708454 C.3        1 MOL1        -0.1243
      12    H8      18.247415   20.886881   21.314084 H          1 MOL1         0.1025
      13    H9      19.807315   21.086093   22.095593 H          1 MOL1         0.1025
      14    C4      18.625889   19.432790   22.870058 C.3        1 MOL1        -0.2258
      15    H10     18.000772   18.608314   22.503152 H          1 MOL1         0.1036
      16    H11     18.023843   20.017559   23.577688 H          1 MOL1         0.1036
      17    H12     19.468502   19.014965   23.433180 H          1 MOL1         0.1036
@<TRIPOS>BOND
    1     1     2    1
    2     1     3    1
    3     1     4    1
    4     1     5    1
    5     5     6    1
    6     5     7    1
    7     5     8    1
    8     8     9    1
    9     8    10    1
   10     8    11    1
   11    11    12    1
   12    11    13    1
   13    11    14    1
   14    14    15    1
   15    14    16    1
   16    14    17    1
@<TRIPOS>SUBSTRUCTURE
       1 MOL1            1 RESIDUE      1      MOL     
@<SCITEGIC>MOL_PROPERTY
VConf Rank
SciTegic.value.IntegerValue
892

@<SCITEGIC>MOL_PROPERTY
Conf_Id
SciTegic.value.IntegerValue
44

@<SCITEGIC>MOL_PROPERTY
Delta U+W
SciTegic.value.DoubleValue
2.712

@<SCITEGIC>MOL_PROPERTY
U+W
SciTegic.value.DoubleValue
-13.153

@<SCITEGIC>MOL_PROPERTY
Grad RMS
SciTegic.value.DoubleValue
0.000000

@<SCITEGIC>MOL_PROPERTY
U
SciTegic.value.DoubleValue
47.423

@<SCITEGIC>MOL_PROPERTY
W
SciTegic.value.DoubleValue
-60.576

@<SCITEGIC>MOL_PROPERTY
W(PB)
SciTegic.value.DoubleValue
-62.262

@<SCITEGIC>MOL_PROPERTY
W(SA)
SciTegic.value.DoubleValue
1.687

@<SCITEGIC>MOL_PROPERTY
Valence
SciTegic.value.DoubleValue
2.414

@<SCITEGIC>MOL_PROPERTY
Coulomb
SciTegic.value.DoubleValue
44.831

@<SCITEGIC>MOL_PROPERTY
VdW
SciTegic.value.DoubleValue
0.178

@<SCITEGIC>MOL_PROPERTY
VdW6
SciTegic.value.DoubleValue
-3.743

@<SCITEGIC>MOL_PROPERTY
VdW12
SciTegic.value.DoubleValue
3.922

@<SCITEGIC>MOL_PROPERTY
Bond
SciTegic.value.DoubleValue
0.138

@<SCITEGIC>MOL_PROPERTY
Angle
SciTegic.value.DoubleValue
0.941

@<SCITEGIC>MOL_PROPERTY
Pdih
SciTegic.value.DoubleValue
1.335

@<SCITEGIC>MOL_PROPERTY
Idih
SciTegic.value.DoubleValue
0.000

@<SCITEGIC>MOL_PROPERTY
Tether
SciTegic.value.DoubleValue
0.000

@<TRIPOS>MOLECULE
guest-1_confgen4.mol2 : confsearch ligand conformer 893
          17          16           1
SMALL
USER_CHARGES
 
@<TRIPOS>ATOM
       1    N1      18.416787   19.086420   22.898250 N.4        1 MOL1        -0.5891
       2    H1      18.664087   20.057616   22.688323 H          1 MOL1         0.3726
       3    H2      18.737587   18.891466   23.851381 H          1 MOL1         0.3726
       4    H3      17.393171   19.034653   22.912328 H          1 MOL1         0.3726
       5    C1      19.016404   18.123785   21.891447 C.3        1 MOL1         0.0314
       6    H4      18.611689   18.367756   20.905806 H          1 MOL1         0.0999
       7    H5      18.682100   17.116394   22.154015 H          1 MOL1         0.0999
       8    C2      20.558044   18.153835   21.842829 C.3        1 MOL1        -0.1308
       9    H6      20.955261   17.867992   22.825815 H          1 MOL1         0.1025
      10    H7      20.902300   17.384762   21.138686 H          1 MOL1         0.1025
      11    C3      21.148696   19.524624   21.428555 C.3        1 MOL1        -0.1243
      12    H8      22.245452   19.454092   21.436067 H          1 MOL1         0.1025
      13    H9      20.889126   20.288477   22.174079 H          1 MOL1         0.1025
      14    C4      20.684737   19.985426   20.027769 C.3        1 MOL1        -0.2258
      15    H10     20.934285   19.237772   19.263696 H          1 MOL1         0.1036
      16    H11     21.177387   20.925956   19.749077 H          1 MOL1         0.1036
      17    H12     19.601530   20.157737   19.997425 H          1 MOL1         0.1036
@<TRIPOS>BOND
    1     1     2    1
    2     1     3    1
    3     1     4    1
    4     1     5    1
    5     5     6    1
    6     5     7    1
    7     5     8    1
    8     8     9    1
    9     8    10    1
   10     8    11    1
   11    11    12    1
   12    11    13    1
   13    11    14    1
   14    14    15    1
   15    14    16    1
   16    14    17    1
@<TRIPOS>SUBSTRUCTURE
       1 MOL1            1 RESIDUE      1      MOL     
@<SCITEGIC>MOL_PROPERTY
VConf Rank
SciTegic.value.IntegerValue
893

@<SCITEGIC>MOL_PROPERTY
Conf_Id
SciTegic.value.IntegerValue
1

@<SCITEGIC>MOL_PROPERTY
Delta U+W
SciTegic.value.DoubleValue
0.685

@<SCITEGIC>MOL_PROPERTY
U+W
SciTegic.value.DoubleValue
-15.179

@<SCITEGIC>MOL_PROPERTY
Grad RMS
SciTegic.value.DoubleValue
0.000000

@<SCITEGIC>MOL_PROPERTY
U
SciTegic.value.DoubleValue
45.697

@<SCITEGIC>MOL_PROPERTY
W
SciTegic.value.DoubleValue
-60.876

@<SCITEGIC>MOL_PROPERTY
W(PB)
SciTegic.value.DoubleValue
-62.586

@<SCITEGIC>MOL_PROPERTY
W(SA)
SciTegic.value.DoubleValue
1.710

@<SCITEGIC>MOL_PROPERTY
Valence
SciTegic.value.DoubleValue
1.263

@<SCITEGIC>MOL_PROPERTY
Coulomb
SciTegic.value.DoubleValue
44.179

@<SCITEGIC>MOL_PROPERTY
VdW
SciTegic.value.DoubleValue
0.255

@<SCITEGIC>MOL_PROPERTY
VdW6
SciTegic.value.DoubleValue
-3.552

@<SCITEGIC>MOL_PROPERTY
VdW12
SciTegic.value.DoubleValue
3.807

@<SCITEGIC>MOL_PROPERTY
Bond
SciTegic.value.DoubleValue
0.125

@<SCITEGIC>MOL_PROPERTY
Angle
SciTegic.value.DoubleValue
0.616

@<SCITEGIC>MOL_PROPERTY
Pdih
SciTegic.value.DoubleValue
0.521

@<SCITEGIC>MOL_PROPERTY
Idih
SciTegic.value.DoubleValue
0.000

@<SCITEGIC>MOL_PROPERTY
Tether
SciTegic.value.DoubleValue
0.000

@<TRIPOS>MOLECULE
guest-1_confgen4.mol2 : confsearch ligand conformer 894
          17          16           1
SMALL
USER_CHARGES
 
@<TRIPOS>ATOM
       1    N1      19.770279   18.395674   19.723365 N.4        1 MOL1        -0.5891
       2    H1      18.828183   18.048154   19.520729 H          1 MOL1         0.3726
       3    H2      20.256292   17.663786   20.249274 H          1 MOL1         0.3726
       4    H3      20.253067   18.488590   18.823948 H          1 MOL1         0.3726
       5    C1      19.738070   19.707073   20.484321 C.3        1 MOL1         0.0314
       6    H4      19.241011   20.447210   19.851338 H          1 MOL1         0.0999
       7    H5      20.769242   20.034295   20.640580 H          1 MOL1         0.0999
       8    C2      19.007973   19.622258   21.840671 C.3        1 MOL1        -0.1308
       9    H6      18.978225   20.625172   22.286858 H          1 MOL1         0.1025
      10    H7      17.962656   19.332666   21.669798 H          1 MOL1         0.1025
      11    C3      19.656693   18.637182   22.844835 C.3        1 MOL1        -0.1243
      12    H8      19.611199   17.612536   22.451535 H          1 MOL1         0.1025
      13    H9      19.063482   18.633343   23.770032 H          1 MOL1         0.1025
      14    C4      21.120029   18.998599   23.188090 C.3        1 MOL1        -0.2258
      15    H10     21.516949   18.315011   23.949752 H          1 MOL1         0.1036
      16    H11     21.191636   20.019623   23.584889 H          1 MOL1         0.1036
      17    H12     21.771001   18.926866   22.307727 H          1 MOL1         0.1036
@<TRIPOS>BOND
    1     1     2    1
    2     1     3    1
    3     1     4    1
    4     1     5    1
    5     5     6    1
    6     5     7    1
    7     5     8    1
    8     8     9    1
    9     8    10    1
   10     8    11    1
   11    11    12    1
   12    11    13    1
   13    11    14    1
   14    14    15    1
   15    14    16    1
   16    14    17    1
@<TRIPOS>SUBSTRUCTURE
       1 MOL1            1 RESIDUE      1      MOL     
@<SCITEGIC>MOL_PROPERTY
VConf Rank
SciTegic.value.IntegerValue
894

@<SCITEGIC>MOL_PROPERTY
Conf_Id
SciTegic.value.IntegerValue
43

@<SCITEGIC>MOL_PROPERTY
Delta U+W
SciTegic.value.DoubleValue
0.642

@<SCITEGIC>MOL_PROPERTY
U+W
SciTegic.value.DoubleValue
-15.222

@<SCITEGIC>MOL_PROPERTY
Grad RMS
SciTegic.value.DoubleValue
0.000000

@<SCITEGIC>MOL_PROPERTY
U
SciTegic.value.DoubleValue
45.697

@<SCITEGIC>MOL_PROPERTY
W
SciTegic.value.DoubleValue
-60.919

@<SCITEGIC>MOL_PROPERTY
W(PB)
SciTegic.value.DoubleValue
-62.631

@<SCITEGIC>MOL_PROPERTY
W(SA)
SciTegic.value.DoubleValue
1.712

@<SCITEGIC>MOL_PROPERTY
Valence
SciTegic.value.DoubleValue
1.262

@<SCITEGIC>MOL_PROPERTY
Coulomb
SciTegic.value.DoubleValue
44.179

@<SCITEGIC>MOL_PROPERTY
VdW
SciTegic.value.DoubleValue
0.255

@<SCITEGIC>MOL_PROPERTY
VdW6
SciTegic.value.DoubleValue
-3.552

@<SCITEGIC>MOL_PROPERTY
VdW12
SciTegic.value.DoubleValue
3.807

@<SCITEGIC>MOL_PROPERTY
Bond
SciTegic.value.DoubleValue
0.125

@<SCITEGIC>MOL_PROPERTY
Angle
SciTegic.value.DoubleValue
0.616

@<SCITEGIC>MOL_PROPERTY
Pdih
SciTegic.value.DoubleValue
0.521

@<SCITEGIC>MOL_PROPERTY
Idih
SciTegic.value.DoubleValue
0.000

@<SCITEGIC>MOL_PROPERTY
Tether
SciTegic.value.DoubleValue
0.000

@<TRIPOS>MOLECULE
guest-1_confgen4.mol2 : confsearch ligand conformer 895
          17          16           1
SMALL
USER_CHARGES
 
@<TRIPOS>ATOM
       1    N1      21.026660   21.231289   20.746635 N.4        1 MOL1        -0.5891
       2    H1      20.668187   21.853188   21.477685 H          1 MOL1         0.3726
       3    H2      20.429207   21.358421   19.924088 H          1 MOL1         0.3726
       4    H3      21.957499   21.577914   20.493064 H          1 MOL1         0.3726
       5    C1      21.067975   19.785765   21.200630 C.3        1 MOL1         0.0314
       6    H4      21.744258   19.720175   22.057287 H          1 MOL1         0.0999
       7    H5      21.487322   19.188140   20.386678 H          1 MOL1         0.0999
       8    C2      19.685018   19.232238   21.589603 C.3        1 MOL1        -0.1308
       9    H6      19.260372   19.844186   22.396564 H          1 MOL1         0.1025
      10    H7      19.004370   19.313843   20.731671 H          1 MOL1         0.1025
      11    C3      19.771777   17.759101   22.045525 C.3        1 MOL1        -0.1243
      12    H8      20.455553   17.676278   22.902214 H          1 MOL1         0.1025
      13    H9      20.199789   17.146569   21.239339 H          1 MOL1         0.1025
      14    C4      18.388149   17.196999   22.437402 C.3        1 MOL1        -0.2258
      15    H10     18.471327   16.150421   22.758036 H          1 MOL1         0.1036
      16    H11     17.691591   17.234592   21.589698 H          1 MOL1         0.1036
      17    H12     17.949352   17.768529   23.265663 H          1 MOL1         0.1036
@<TRIPOS>BOND
    1     1     2    1
    2     1     3    1
    3     1     4    1
    4     1     5    1
    5     5     6    1
    6     5     7    1
    7     5     8    1
    8     8     9    1
    9     8    10    1
   10     8    11    1
   11    11    12    1
   12    11    13    1
   13    11    14    1
   14    14    15    1
   15    14    16    1
   16    14    17    1
@<TRIPOS>SUBSTRUCTURE
       1 MOL1            1 RESIDUE      1      MOL     
@<SCITEGIC>MOL_PROPERTY
VConf Rank
SciTegic.value.IntegerValue
895

@<SCITEGIC>MOL_PROPERTY
Conf_Id
SciTegic.value.IntegerValue
7

@<SCITEGIC>MOL_PROPERTY
Delta U+W
SciTegic.value.DoubleValue
0.000

@<SCITEGIC>MOL_PROPERTY
U+W
SciTegic.value.DoubleValue
-15.865

@<SCITEGIC>MOL_PROPERTY
Grad RMS
SciTegic.value.DoubleValue
0.000000

@<SCITEGIC>MOL_PROPERTY
U
SciTegic.value.DoubleValue
44.664

@<SCITEGIC>MOL_PROPERTY
W
SciTegic.value.DoubleValue
-60.529

@<SCITEGIC>MOL_PROPERTY
W(PB)
SciTegic.value.DoubleValue
-62.309

@<SCITEGIC>MOL_PROPERTY
W(SA)
SciTegic.value.DoubleValue
1.780

@<SCITEGIC>MOL_PROPERTY
Valence
SciTegic.value.DoubleValue
0.872

@<SCITEGIC>MOL_PROPERTY
Coulomb
SciTegic.value.DoubleValue
43.648

@<SCITEGIC>MOL_PROPERTY
VdW
SciTegic.value.DoubleValue
0.144

@<SCITEGIC>MOL_PROPERTY
VdW6
SciTegic.value.DoubleValue
-2.370

@<SCITEGIC>MOL_PROPERTY
VdW12
SciTegic.value.DoubleValue
2.515

@<SCITEGIC>MOL_PROPERTY
Bond
SciTegic.value.DoubleValue
0.080

@<SCITEGIC>MOL_PROPERTY
Angle
SciTegic.value.DoubleValue
0.376

@<SCITEGIC>MOL_PROPERTY
Pdih
SciTegic.value.DoubleValue
0.416

@<SCITEGIC>MOL_PROPERTY
Idih
SciTegic.value.DoubleValue
0.000

@<SCITEGIC>MOL_PROPERTY
Tether
SciTegic.value.DoubleValue
0.000

@<TRIPOS>MOLECULE
guest-1_confgen4.mol2 : confsearch ligand conformer 896
          17          16           1
SMALL
USER_CHARGES
 
@<TRIPOS>ATOM
       1    N1      17.952168   17.875709   22.277700 N.4        1 MOL1        -0.5891
       2    H1      17.129600   18.352699   21.896243 H          1 MOL1         0.3726
       3    H2      17.984344   18.086712   23.279743 H          1 MOL1         0.3726
       4    H3      17.777150   16.869279   22.192197 H          1 MOL1         0.3726
       5    C1      19.227128   18.288361   21.569497 C.3        1 MOL1         0.0314
       6    H4      19.135075   18.007493   20.516859 H          1 MOL1         0.0999
       7    H5      20.052556   17.719522   22.005305 H          1 MOL1         0.0999
       8    C2      19.520827   19.796929   21.678696 C.3        1 MOL1        -0.1308
       9    H6      18.668602   20.359555   21.274914 H          1 MOL1         0.1025
      10    H7      19.611617   20.079324   22.736003 H          1 MOL1         0.1025
      11    C3      20.802778   20.211512   20.919269 C.3        1 MOL1        -0.1243
      12    H8      20.909617   21.304247   20.969235 H          1 MOL1         0.1025
      13    H9      20.700091   19.959702   19.854267 H          1 MOL1         0.1025
      14    C4      22.081138   19.553518   21.487421 C.3        1 MOL1        -0.2258
      15    H10     22.204252   19.784918   22.553452 H          1 MOL1         0.1036
      16    H11     22.970616   19.921951   20.960077 H          1 MOL1         0.1036
      17    H12     22.057821   18.462342   21.373921 H          1 MOL1         0.1036
@<TRIPOS>BOND
    1     1     2    1
    2     1     3    1
    3     1     4    1
    4     1     5    1
    5     5     6    1
    6     5     7    1
    7     5     8    1
    8     8     9    1
    9     8    10    1
   10     8    11    1
   11    11    12    1
   12    11    13    1
   13    11    14    1
   14    14    15    1
   15    14    16    1
   16    14    17    1
@<TRIPOS>SUBSTRUCTURE
       1 MOL1            1 RESIDUE      1      MOL     
@<SCITEGIC>MOL_PROPERTY
VConf Rank
SciTegic.value.IntegerValue
896

@<SCITEGIC>MOL_PROPERTY
Conf_Id
SciTegic.value.IntegerValue
36

@<SCITEGIC>MOL_PROPERTY
Delta U+W
SciTegic.value.DoubleValue
0.275

@<SCITEGIC>MOL_PROPERTY
U+W
SciTegic.value.DoubleValue
-15.590

@<SCITEGIC>MOL_PROPERTY
Grad RMS
SciTegic.value.DoubleValue
0.000000

@<SCITEGIC>MOL_PROPERTY
U
SciTegic.value.DoubleValue
45.174

@<SCITEGIC>MOL_PROPERTY
W
SciTegic.value.DoubleValue
-60.765

@<SCITEGIC>MOL_PROPERTY
W(PB)
SciTegic.value.DoubleValue
-62.518

@<SCITEGIC>MOL_PROPERTY
W(SA)
SciTegic.value.DoubleValue
1.754

@<SCITEGIC>MOL_PROPERTY
Valence
SciTegic.value.DoubleValue
1.161

@<SCITEGIC>MOL_PROPERTY
Coulomb
SciTegic.value.DoubleValue
43.789

@<SCITEGIC>MOL_PROPERTY
VdW
SciTegic.value.DoubleValue
0.224

@<SCITEGIC>MOL_PROPERTY
VdW6
SciTegic.value.DoubleValue
-2.897

@<SCITEGIC>MOL_PROPERTY
VdW12
SciTegic.value.DoubleValue
3.121

@<SCITEGIC>MOL_PROPERTY
Bond
SciTegic.value.DoubleValue
0.100

@<SCITEGIC>MOL_PROPERTY
Angle
SciTegic.value.DoubleValue
0.500

@<SCITEGIC>MOL_PROPERTY
Pdih
SciTegic.value.DoubleValue
0.561

@<SCITEGIC>MOL_PROPERTY
Idih
SciTegic.value.DoubleValue
0.000

@<SCITEGIC>MOL_PROPERTY
Tether
SciTegic.value.DoubleValue
0.000

@<TRIPOS>MOLECULE
guest-1_confgen4.mol2 : confsearch ligand conformer 897
          17          16           1
SMALL
USER_CHARGES
 
@<TRIPOS>ATOM
       1    N1      20.692532   18.200300   20.095842 N.4        1 MOL1        -0.5891
       2    H1      19.880725   17.671260   20.424369 H          1 MOL1         0.3726
       3    H2      21.527459   17.705250   20.423411 H          1 MOL1         0.3726
       4    H3      20.696134   18.144196   19.072288 H          1 MOL1         0.3726
       5    C1      20.661949   19.636520   20.582020 C.3        1 MOL1         0.0314
       6    H4      19.789662   20.132477   20.147920 H          1 MOL1         0.0999
       7    H5      21.558164   20.125704   20.190822 H          1 MOL1         0.0999
       8    C2      20.637344   19.786048   22.117809 C.3        1 MOL1        -0.1308
       9    H6      21.356809   19.093363   22.574193 H          1 MOL1         0.1025
      10    H7      20.994706   20.795319   22.361760 H          1 MOL1         0.1025
      11    C3      19.237110   19.608507   22.758533 C.3        1 MOL1        -0.1243
      12    H8      18.542038   20.349334   22.338922 H          1 MOL1         0.1025
      13    H9      19.315410   19.838456   23.830439 H          1 MOL1         0.1025
      14    C4      18.637329   18.192712   22.601468 C.3        1 MOL1        -0.2258
      15    H10     18.344680   17.992519   21.564186 H          1 MOL1         0.1036
      16    H11     17.733483   18.092019   23.216349 H          1 MOL1         0.1036
      17    H12     19.347662   17.420732   22.924929 H          1 MOL1         0.1036
@<TRIPOS>BOND
    1     1     2    1
    2     1     3    1
    3     1     4    1
    4     1     5    1
    5     5     6    1
    6     5     7    1
    7     5     8    1
    8     8     9    1
    9     8    10    1
   10     8    11    1
   11    11    12    1
   12    11    13    1
   13    11    14    1
   14    14    15    1
   15    14    16    1
   16    14    17    1
@<TRIPOS>SUBSTRUCTURE
       1 MOL1            1 RESIDUE      1      MOL     
@<SCITEGIC>MOL_PROPERTY
VConf Rank
SciTegic.value.IntegerValue
897

@<SCITEGIC>MOL_PROPERTY
Conf_Id
SciTegic.value.IntegerValue
19

@<SCITEGIC>MOL_PROPERTY
Delta U+W
SciTegic.value.DoubleValue
2.662

@<SCITEGIC>MOL_PROPERTY
U+W
SciTegic.value.DoubleValue
-13.203

@<SCITEGIC>MOL_PROPERTY
Grad RMS
SciTegic.value.DoubleValue
0.000000

@<SCITEGIC>MOL_PROPERTY
U
SciTegic.value.DoubleValue
47.423

@<SCITEGIC>MOL_PROPERTY
W
SciTegic.value.DoubleValue
-60.626

@<SCITEGIC>MOL_PROPERTY
W(PB)
SciTegic.value.DoubleValue
-62.328

@<SCITEGIC>MOL_PROPERTY
W(SA)
SciTegic.value.DoubleValue
1.702

@<SCITEGIC>MOL_PROPERTY
Valence
SciTegic.value.DoubleValue
2.414

@<SCITEGIC>MOL_PROPERTY
Coulomb
SciTegic.value.DoubleValue
44.831

@<SCITEGIC>MOL_PROPERTY
VdW
SciTegic.value.DoubleValue
0.178

@<SCITEGIC>MOL_PROPERTY
VdW6
SciTegic.value.DoubleValue
-3.743

@<SCITEGIC>MOL_PROPERTY
VdW12
SciTegic.value.DoubleValue
3.921

@<SCITEGIC>MOL_PROPERTY
Bond
SciTegic.value.DoubleValue
0.138

@<SCITEGIC>MOL_PROPERTY
Angle
SciTegic.value.DoubleValue
0.941

@<SCITEGIC>MOL_PROPERTY
Pdih
SciTegic.value.DoubleValue
1.335

@<SCITEGIC>MOL_PROPERTY
Idih
SciTegic.value.DoubleValue
0.000

@<SCITEGIC>MOL_PROPERTY
Tether
SciTegic.value.DoubleValue
0.000

@<TRIPOS>MOLECULE
guest-1_confgen4.mol2 : confsearch ligand conformer 898
          17          16           1
SMALL
USER_CHARGES
 
@<TRIPOS>ATOM
       1    N1      19.659537   20.866220   21.213740 N.4        1 MOL1        -0.5891
       2    H1      19.364976   21.561436   20.520391 H          1 MOL1         0.3726
       3    H2      20.139893   21.376778   21.960780 H          1 MOL1         0.3726
       4    H3      18.809955   20.466660   21.620440 H          1 MOL1         0.3726
       5    C1      20.545421   19.798609   20.600996 C.3        1 MOL1         0.0314
       6    H4      21.424224   20.306727   20.194724 H          1 MOL1         0.0999
       7    H5      20.008077   19.335803   19.768906 H          1 MOL1         0.0999
       8    C2      21.007582   18.711139   21.593683 C.3        1 MOL1        -0.1308
       9    H6      21.906493   18.237617   21.177052 H          1 MOL1         0.1025
      10    H7      21.321551   19.174100   22.538575 H          1 MOL1         0.1025
      11    C3      19.962400   17.597842   21.859898 C.3        1 MOL1        -0.1243
      12    H8      20.429445   16.828447   22.490683 H          1 MOL1         0.1025
      13    H9      19.703887   17.099964   20.914747 H          1 MOL1         0.1025
      14    C4      18.671075   18.086513   22.554562 C.3        1 MOL1        -0.2258
      15    H10     18.899675   18.671395   23.455011 H          1 MOL1         0.1036
      16    H11     18.056451   17.230098   22.861068 H          1 MOL1         0.1036
      17    H12     18.058570   18.697498   21.881349 H          1 MOL1         0.1036
@<TRIPOS>BOND
    1     1     2    1
    2     1     3    1
    3     1     4    1
    4     1     5    1
    5     5     6    1
    6     5     7    1
    7     5     8    1
    8     8     9    1
    9     8    10    1
   10     8    11    1
   11    11    12    1
   12    11    13    1
   13    11    14    1
   14    14    15    1
   15    14    16    1
   16    14    17    1
@<TRIPOS>SUBSTRUCTURE
       1 MOL1            1 RESIDUE      1      MOL     
@<SCITEGIC>MOL_PROPERTY
VConf Rank
SciTegic.value.IntegerValue
898

@<SCITEGIC>MOL_PROPERTY
Conf_Id
SciTegic.value.IntegerValue
44

@<SCITEGIC>MOL_PROPERTY
Delta U+W
SciTegic.value.DoubleValue
2.712

@<SCITEGIC>MOL_PROPERTY
U+W
SciTegic.value.DoubleValue
-13.153

@<SCITEGIC>MOL_PROPERTY
Grad RMS
SciTegic.value.DoubleValue
0.000000

@<SCITEGIC>MOL_PROPERTY
U
SciTegic.value.DoubleValue
47.423

@<SCITEGIC>MOL_PROPERTY
W
SciTegic.value.DoubleValue
-60.576

@<SCITEGIC>MOL_PROPERTY
W(PB)
SciTegic.value.DoubleValue
-62.262

@<SCITEGIC>MOL_PROPERTY
W(SA)
SciTegic.value.DoubleValue
1.687

@<SCITEGIC>MOL_PROPERTY
Valence
SciTegic.value.DoubleValue
2.414

@<SCITEGIC>MOL_PROPERTY
Coulomb
SciTegic.value.DoubleValue
44.831

@<SCITEGIC>MOL_PROPERTY
VdW
SciTegic.value.DoubleValue
0.178

@<SCITEGIC>MOL_PROPERTY
VdW6
SciTegic.value.DoubleValue
-3.743

@<SCITEGIC>MOL_PROPERTY
VdW12
SciTegic.value.DoubleValue
3.922

@<SCITEGIC>MOL_PROPERTY
Bond
SciTegic.value.DoubleValue
0.138

@<SCITEGIC>MOL_PROPERTY
Angle
SciTegic.value.DoubleValue
0.941

@<SCITEGIC>MOL_PROPERTY
Pdih
SciTegic.value.DoubleValue
1.335

@<SCITEGIC>MOL_PROPERTY
Idih
SciTegic.value.DoubleValue
0.000

@<SCITEGIC>MOL_PROPERTY
Tether
SciTegic.value.DoubleValue
0.000

@<TRIPOS>MOLECULE
guest-1_confgen4.mol2 : confsearch ligand conformer 899
          17          16           1
SMALL
USER_CHARGES
 
@<TRIPOS>ATOM
       1    N1      18.334352   20.136208   21.118427 N.4        1 MOL1        -0.5891
       2    H1      18.005494   19.176032   21.253932 H          1 MOL1         0.3726
       3    H2      18.301198   20.328601   20.112811 H          1 MOL1         0.3726
       4    H3      17.646834   20.753406   21.562336 H          1 MOL1         0.3726
       5    C1      19.725190   20.339327   21.687785 C.3        1 MOL1         0.0314
       6    H4      19.683185   20.147433   22.763061 H          1 MOL1         0.0999
       7    H5      19.994539   21.388992   21.542208 H          1 MOL1         0.0999
       8    C2      20.800177   19.441748   21.040734 C.3        1 MOL1        -0.1308
       9    H6      20.863155   19.670610   19.968631 H          1 MOL1         0.1025
      10    H7      21.778152   19.702207   21.466797 H          1 MOL1         0.1025
      11    C3      20.550585   17.924533   21.228671 C.3        1 MOL1        -0.1243
      12    H8      21.354061   17.368799   20.725193 H          1 MOL1         0.1025
      13    H9      19.618516   17.630251   20.727375 H          1 MOL1         0.1025
      14    C4      20.499837   17.498660   22.713883 C.3        1 MOL1        -0.2258
      15    H10     21.422467   17.781425   23.237206 H          1 MOL1         0.1036
      16    H11     20.387290   16.410029   22.798642 H          1 MOL1         0.1036
      17    H12     19.653609   17.960502   23.237856 H          1 MOL1         0.1036
@<TRIPOS>BOND
    1     1     2    1
    2     1     3    1
    3     1     4    1
    4     1     5    1
    5     5     6    1
    6     5     7    1
    7     5     8    1
    8     8     9    1
    9     8    10    1
   10     8    11    1
   11    11    12    1
   12    11    13    1
   13    11    14    1
   14    14    15    1
   15    14    16    1
   16    14    17    1
@<TRIPOS>SUBSTRUCTURE
       1 MOL1            1 RESIDUE      1      MOL     
@<SCITEGIC>MOL_PROPERTY
VConf Rank
SciTegic.value.IntegerValue
899

@<SCITEGIC>MOL_PROPERTY
Conf_Id
SciTegic.value.IntegerValue
1

@<SCITEGIC>MOL_PROPERTY
Delta U+W
SciTegic.value.DoubleValue
0.685

@<SCITEGIC>MOL_PROPERTY
U+W
SciTegic.value.DoubleValue
-15.179

@<SCITEGIC>MOL_PROPERTY
Grad RMS
SciTegic.value.DoubleValue
0.000000

@<SCITEGIC>MOL_PROPERTY
U
SciTegic.value.DoubleValue
45.697

@<SCITEGIC>MOL_PROPERTY
W
SciTegic.value.DoubleValue
-60.876

@<SCITEGIC>MOL_PROPERTY
W(PB)
SciTegic.value.DoubleValue
-62.586

@<SCITEGIC>MOL_PROPERTY
W(SA)
SciTegic.value.DoubleValue
1.710

@<SCITEGIC>MOL_PROPERTY
Valence
SciTegic.value.DoubleValue
1.263

@<SCITEGIC>MOL_PROPERTY
Coulomb
SciTegic.value.DoubleValue
44.179

@<SCITEGIC>MOL_PROPERTY
VdW
SciTegic.value.DoubleValue
0.255

@<SCITEGIC>MOL_PROPERTY
VdW6
SciTegic.value.DoubleValue
-3.552

@<SCITEGIC>MOL_PROPERTY
VdW12
SciTegic.value.DoubleValue
3.807

@<SCITEGIC>MOL_PROPERTY
Bond
SciTegic.value.DoubleValue
0.125

@<SCITEGIC>MOL_PROPERTY
Angle
SciTegic.value.DoubleValue
0.616

@<SCITEGIC>MOL_PROPERTY
Pdih
SciTegic.value.DoubleValue
0.521

@<SCITEGIC>MOL_PROPERTY
Idih
SciTegic.value.DoubleValue
0.000

@<SCITEGIC>MOL_PROPERTY
Tether
SciTegic.value.DoubleValue
0.000

@<TRIPOS>MOLECULE
guest-1_confgen4.mol2 : confsearch ligand conformer 900
          17          16           1
SMALL
USER_CHARGES
 
@<TRIPOS>ATOM
       1    N1      18.117866   18.753265   22.374409 N.4        1 MOL1        -0.5891
       2    H1      18.039932   17.839067   22.829980 H          1 MOL1         0.3726
       3    H2      18.040044   18.596359   21.365562 H          1 MOL1         0.3726
       4    H3      17.296452   19.297502   22.656814 H          1 MOL1         0.3726
       5    C1      19.411920   19.456817   22.735375 C.3        1 MOL1         0.0314
       6    H4      19.409688   19.624276   23.815880 H          1 MOL1         0.0999
       7    H5      19.416843   20.432410   22.242425 H          1 MOL1         0.0999
       8    C2      20.679231   18.669380   22.343219 C.3        1 MOL1        -0.1308
       9    H6      21.559588   19.221030   22.698829 H          1 MOL1         0.1025
      10    H7      20.685412   17.708553   22.874747 H          1 MOL1         0.1025
      11    C3      20.817667   18.415817   20.821345 C.3        1 MOL1        -0.1243
      12    H8      19.990467   17.786038   20.466698 H          1 MOL1         0.1025
      13    H9      21.736113   17.839836   20.640772 H          1 MOL1         0.1025
      14    C4      20.871586   19.719737   19.992683 C.3        1 MOL1        -0.2258
      15    H10     21.035412   19.494638   18.930864 H          1 MOL1         0.1036
      16    H11     21.692504   20.366775   20.328099 H          1 MOL1         0.1036
      17    H12     19.935263   20.286538   20.070040 H          1 MOL1         0.1036
@<TRIPOS>BOND
    1     1     2    1
    2     1     3    1
    3     1     4    1
    4     1     5    1
    5     5     6    1
    6     5     7    1
    7     5     8    1
    8     8     9    1
    9     8    10    1
   10     8    11    1
   11    11    12    1
   12    11    13    1
   13    11    14    1
   14    14    15    1
   15    14    16    1
   16    14    17    1
@<TRIPOS>SUBSTRUCTURE
       1 MOL1            1 RESIDUE      1      MOL     
@<SCITEGIC>MOL_PROPERTY
VConf Rank
SciTegic.value.IntegerValue
900

@<SCITEGIC>MOL_PROPERTY
Conf_Id
SciTegic.value.IntegerValue
43

@<SCITEGIC>MOL_PROPERTY
Delta U+W
SciTegic.value.DoubleValue
0.642

@<SCITEGIC>MOL_PROPERTY
U+W
SciTegic.value.DoubleValue
-15.222

@<SCITEGIC>MOL_PROPERTY
Grad RMS
SciTegic.value.DoubleValue
0.000000

@<SCITEGIC>MOL_PROPERTY
U
SciTegic.value.DoubleValue
45.697

@<SCITEGIC>MOL_PROPERTY
W
SciTegic.value.DoubleValue
-60.919

@<SCITEGIC>MOL_PROPERTY
W(PB)
SciTegic.value.DoubleValue
-62.631

@<SCITEGIC>MOL_PROPERTY
W(SA)
SciTegic.value.DoubleValue
1.712

@<SCITEGIC>MOL_PROPERTY
Valence
SciTegic.value.DoubleValue
1.262

@<SCITEGIC>MOL_PROPERTY
Coulomb
SciTegic.value.DoubleValue
44.179

@<SCITEGIC>MOL_PROPERTY
VdW
SciTegic.value.DoubleValue
0.255

@<SCITEGIC>MOL_PROPERTY
VdW6
SciTegic.value.DoubleValue
-3.552

@<SCITEGIC>MOL_PROPERTY
VdW12
SciTegic.value.DoubleValue
3.807

@<SCITEGIC>MOL_PROPERTY
Bond
SciTegic.value.DoubleValue
0.125

@<SCITEGIC>MOL_PROPERTY
Angle
SciTegic.value.DoubleValue
0.616

@<SCITEGIC>MOL_PROPERTY
Pdih
SciTegic.value.DoubleValue
0.521

@<SCITEGIC>MOL_PROPERTY
Idih
SciTegic.value.DoubleValue
0.000

@<SCITEGIC>MOL_PROPERTY
Tether
SciTegic.value.DoubleValue
0.000

@<TRIPOS>MOLECULE
guest-1_confgen4.mol2 : confsearch ligand conformer 901
          17          16           1
SMALL
USER_CHARGES
 
@<TRIPOS>ATOM
       1    N1      19.970866   21.070839   23.198833 N.4        1 MOL1        -0.5891
       2    H1      20.147641   20.551579   24.064174 H          1 MOL1         0.3726
       3    H2      18.966643   21.271612   23.168425 H          1 MOL1         0.3726
       4    H3      20.450490   21.972159   23.290988 H          1 MOL1         0.3726
       5    C1      20.434918   20.308170   21.973946 C.3        1 MOL1         0.0314
       6    H4      21.514480   20.157181   22.059227 H          1 MOL1         0.0999
       7    H5      20.244565   20.931471   21.096002 H          1 MOL1         0.0999
       8    C2      19.733995   18.947917   21.804596 C.3        1 MOL1        -0.1308
       9    H6      19.914488   18.330619   22.694741 H          1 MOL1         0.1025
      10    H7      18.648969   19.102254   21.734682 H          1 MOL1         0.1025
      11    C3      20.235044   18.204699   20.546782 C.3        1 MOL1        -0.1243
      12    H8      21.321627   18.052854   20.614652 H          1 MOL1         0.1025
      13    H9      20.057591   18.823503   19.655761 H          1 MOL1         0.1025
      14    C4      19.536345   16.839175   20.370382 C.3        1 MOL1        -0.2258
      15    H10     19.905869   16.327584   19.472176 H          1 MOL1         0.1036
      16    H11     18.450453   16.961369   20.264959 H          1 MOL1         0.1036
      17    H12     19.724423   16.184663   21.231456 H          1 MOL1         0.1036
@<TRIPOS>BOND
    1     1     2    1
    2     1     3    1
    3     1     4    1
    4     1     5    1
    5     5     6    1
    6     5     7    1
    7     5     8    1
    8     8     9    1
    9     8    10    1
   10     8    11    1
   11    11    12    1
   12    11    13    1
   13    11    14    1
   14    14    15    1
   15    14    16    1
   16    14    17    1
@<TRIPOS>SUBSTRUCTURE
       1 MOL1            1 RESIDUE      1      MOL     
@<SCITEGIC>MOL_PROPERTY
VConf Rank
SciTegic.value.IntegerValue
901

@<SCITEGIC>MOL_PROPERTY
Conf_Id
SciTegic.value.IntegerValue
7

@<SCITEGIC>MOL_PROPERTY
Delta U+W
SciTegic.value.DoubleValue
0.000

@<SCITEGIC>MOL_PROPERTY
U+W
SciTegic.value.DoubleValue
-15.865

@<SCITEGIC>MOL_PROPERTY
Grad RMS
SciTegic.value.DoubleValue
0.000000

@<SCITEGIC>MOL_PROPERTY
U
SciTegic.value.DoubleValue
44.664

@<SCITEGIC>MOL_PROPERTY
W
SciTegic.value.DoubleValue
-60.529

@<SCITEGIC>MOL_PROPERTY
W(PB)
SciTegic.value.DoubleValue
-62.309

@<SCITEGIC>MOL_PROPERTY
W(SA)
SciTegic.value.DoubleValue
1.780

@<SCITEGIC>MOL_PROPERTY
Valence
SciTegic.value.DoubleValue
0.872

@<SCITEGIC>MOL_PROPERTY
Coulomb
SciTegic.value.DoubleValue
43.648

@<SCITEGIC>MOL_PROPERTY
VdW
SciTegic.value.DoubleValue
0.144

@<SCITEGIC>MOL_PROPERTY
VdW6
SciTegic.value.DoubleValue
-2.370

@<SCITEGIC>MOL_PROPERTY
VdW12
SciTegic.value.DoubleValue
2.515

@<SCITEGIC>MOL_PROPERTY
Bond
SciTegic.value.DoubleValue
0.080

@<SCITEGIC>MOL_PROPERTY
Angle
SciTegic.value.DoubleValue
0.376

@<SCITEGIC>MOL_PROPERTY
Pdih
SciTegic.value.DoubleValue
0.416

@<SCITEGIC>MOL_PROPERTY
Idih
SciTegic.value.DoubleValue
0.000

@<SCITEGIC>MOL_PROPERTY
Tether
SciTegic.value.DoubleValue
0.000

@<TRIPOS>MOLECULE
guest-1_confgen4.mol2 : confsearch ligand conformer 902
          17          16           1
SMALL
USER_CHARGES
 
@<TRIPOS>ATOM
       1    N1      18.066255   20.618292   21.414248 N.4        1 MOL1        -0.5891
       2    H1      18.429594   21.559607   21.236595 H          1 MOL1         0.3726
       3    H2      17.757472   20.594529   22.390841 H          1 MOL1         0.3726
       4    H3      17.227135   20.510535   20.835362 H          1 MOL1         0.3726
       5    C1      19.096607   19.546733   21.118460 C.3        1 MOL1         0.0314
       6    H4      19.356344   19.611093   20.058364 H          1 MOL1         0.0999
       7    H5      18.631179   18.574320   21.299093 H          1 MOL1         0.0999
       8    C2      20.372076   19.679152   21.972628 C.3        1 MOL1        -0.1308
       9    H6      20.809467   20.673889   21.814308 H          1 MOL1         0.1025
      10    H7      20.110975   19.616187   23.037405 H          1 MOL1         0.1025
      11    C3      21.431061   18.604063   21.633897 C.3        1 MOL1        -0.1243
      12    H8      22.340999   18.803056   22.217332 H          1 MOL1         0.1025
      13    H9      21.718126   18.687344   20.576144 H          1 MOL1         0.1025
      14    C4      20.947580   17.165607   21.928935 C.3        1 MOL1        -0.2258
      15    H10     20.648541   17.057001   22.979604 H          1 MOL1         0.1036
      16    H11     21.749530   16.442155   21.732718 H          1 MOL1         0.1036
      17    H12     20.092442   16.890210   21.298866 H          1 MOL1         0.1036
@<TRIPOS>BOND
    1     1     2    1
    2     1     3    1
    3     1     4    1
    4     1     5    1
    5     5     6    1
    6     5     7    1
    7     5     8    1
    8     8     9    1
    9     8    10    1
   10     8    11    1
   11    11    12    1
   12    11    13    1
   13    11    14    1
   14    14    15    1
   15    14    16    1
   16    14    17    1
@<TRIPOS>SUBSTRUCTURE
       1 MOL1            1 RESIDUE      1      MOL     
@<SCITEGIC>MOL_PROPERTY
VConf Rank
SciTegic.value.IntegerValue
902

@<SCITEGIC>MOL_PROPERTY
Conf_Id
SciTegic.value.IntegerValue
36

@<SCITEGIC>MOL_PROPERTY
Delta U+W
SciTegic.value.DoubleValue
0.275

@<SCITEGIC>MOL_PROPERTY
U+W
SciTegic.value.DoubleValue
-15.590

@<SCITEGIC>MOL_PROPERTY
Grad RMS
SciTegic.value.DoubleValue
0.000000

@<SCITEGIC>MOL_PROPERTY
U
SciTegic.value.DoubleValue
45.174

@<SCITEGIC>MOL_PROPERTY
W
SciTegic.value.DoubleValue
-60.765

@<SCITEGIC>MOL_PROPERTY
W(PB)
SciTegic.value.DoubleValue
-62.518

@<SCITEGIC>MOL_PROPERTY
W(SA)
SciTegic.value.DoubleValue
1.754

@<SCITEGIC>MOL_PROPERTY
Valence
SciTegic.value.DoubleValue
1.161

@<SCITEGIC>MOL_PROPERTY
Coulomb
SciTegic.value.DoubleValue
43.789

@<SCITEGIC>MOL_PROPERTY
VdW
SciTegic.value.DoubleValue
0.224

@<SCITEGIC>MOL_PROPERTY
VdW6
SciTegic.value.DoubleValue
-2.897

@<SCITEGIC>MOL_PROPERTY
VdW12
SciTegic.value.DoubleValue
3.121

@<SCITEGIC>MOL_PROPERTY
Bond
SciTegic.value.DoubleValue
0.100

@<SCITEGIC>MOL_PROPERTY
Angle
SciTegic.value.DoubleValue
0.500

@<SCITEGIC>MOL_PROPERTY
Pdih
SciTegic.value.DoubleValue
0.561

@<SCITEGIC>MOL_PROPERTY
Idih
SciTegic.value.DoubleValue
0.000

@<SCITEGIC>MOL_PROPERTY
Tether
SciTegic.value.DoubleValue
0.000

@<TRIPOS>MOLECULE
guest-1_confgen4.mol2 : confsearch ligand conformer 903
          17          16           1
SMALL
USER_CHARGES
 
@<TRIPOS>ATOM
       1    N1      20.047267   18.073753   19.986373 N.4        1 MOL1        -0.5891
       2    H1      19.074804   18.266810   20.239137 H          1 MOL1         0.3726
       3    H2      20.232473   17.095258   20.226635 H          1 MOL1         0.3726
       4    H3      20.114955   18.147255   18.966158 H          1 MOL1         0.3726
       5    C1      21.007649   19.017017   20.684908 C.3        1 MOL1         0.0314
       6    H4      20.808367   20.035121   20.339869 H          1 MOL1         0.0999
       7    H5      22.016028   18.742647   20.363303 H          1 MOL1         0.0999
       8    C2      20.939809   18.965038   22.225787 C.3        1 MOL1        -0.1308
       9    H6      20.890337   17.921727   22.564583 H          1 MOL1         0.1025
      10    H7      21.885464   19.363931   22.616257 H          1 MOL1         0.1025
      11    C3      19.782713   19.788876   22.846372 C.3        1 MOL1        -0.1243
      12    H8      19.879756   20.843079   22.550970 H          1 MOL1         0.1025
      13    H9      19.891260   19.768614   23.939896 H          1 MOL1         0.1025
      14    C4      18.369307   19.280101   22.482622 C.3        1 MOL1        -0.2258
      15    H10     18.131063   19.472221   21.430003 H          1 MOL1         0.1036
      16    H11     17.611646   19.798869   23.084275 H          1 MOL1         0.1036
      17    H12     18.270301   18.204399   22.678112 H          1 MOL1         0.1036
@<TRIPOS>BOND
    1     1     2    1
    2     1     3    1
    3     1     4    1
    4     1     5    1
    5     5     6    1
    6     5     7    1
    7     5     8    1
    8     8     9    1
    9     8    10    1
   10     8    11    1
   11    11    12    1
   12    11    13    1
   13    11    14    1
   14    14    15    1
   15    14    16    1
   16    14    17    1
@<TRIPOS>SUBSTRUCTURE
       1 MOL1            1 RESIDUE      1      MOL     
@<SCITEGIC>MOL_PROPERTY
VConf Rank
SciTegic.value.IntegerValue
903

@<SCITEGIC>MOL_PROPERTY
Conf_Id
SciTegic.value.IntegerValue
19

@<SCITEGIC>MOL_PROPERTY
Delta U+W
SciTegic.value.DoubleValue
2.662

@<SCITEGIC>MOL_PROPERTY
U+W
SciTegic.value.DoubleValue
-13.203

@<SCITEGIC>MOL_PROPERTY
Grad RMS
SciTegic.value.DoubleValue
0.000000

@<SCITEGIC>MOL_PROPERTY
U
SciTegic.value.DoubleValue
47.423

@<SCITEGIC>MOL_PROPERTY
W
SciTegic.value.DoubleValue
-60.626

@<SCITEGIC>MOL_PROPERTY
W(PB)
SciTegic.value.DoubleValue
-62.328

@<SCITEGIC>MOL_PROPERTY
W(SA)
SciTegic.value.DoubleValue
1.702

@<SCITEGIC>MOL_PROPERTY
Valence
SciTegic.value.DoubleValue
2.414

@<SCITEGIC>MOL_PROPERTY
Coulomb
SciTegic.value.DoubleValue
44.831

@<SCITEGIC>MOL_PROPERTY
VdW
SciTegic.value.DoubleValue
0.178

@<SCITEGIC>MOL_PROPERTY
VdW6
SciTegic.value.DoubleValue
-3.743

@<SCITEGIC>MOL_PROPERTY
VdW12
SciTegic.value.DoubleValue
3.921

@<SCITEGIC>MOL_PROPERTY
Bond
SciTegic.value.DoubleValue
0.138

@<SCITEGIC>MOL_PROPERTY
Angle
SciTegic.value.DoubleValue
0.941

@<SCITEGIC>MOL_PROPERTY
Pdih
SciTegic.value.DoubleValue
1.335

@<SCITEGIC>MOL_PROPERTY
Idih
SciTegic.value.DoubleValue
0.000

@<SCITEGIC>MOL_PROPERTY
Tether
SciTegic.value.DoubleValue
0.000

@<TRIPOS>MOLECULE
guest-1_confgen4.mol2 : confsearch ligand conformer 904
          17          16           1
SMALL
USER_CHARGES
 
@<TRIPOS>ATOM
       1    N1      20.080287   17.901736   20.161661 N.4        1 MOL1        -0.5891
       2    H1      20.282074   17.808882   19.160919 H          1 MOL1         0.3726
       3    H2      19.729475   16.993227   20.479501 H          1 MOL1         0.3726
       4    H3      20.972516   18.062460   20.635938 H          1 MOL1         0.3726
       5    C1      19.088851   19.016050   20.436251 C.3        1 MOL1         0.0314
       6    H4      18.170193   18.766471   19.898372 H          1 MOL1         0.0999
       7    H5      19.484202   19.944981   20.016624 H          1 MOL1         0.0999
       8    C2      18.757966   19.216971   21.930158 C.3        1 MOL1        -0.1308
       9    H6      17.796299   19.743453   21.992287 H          1 MOL1         0.1025
      10    H7      18.600400   18.243992   22.414115 H          1 MOL1         0.1025
      11    C3      19.806626   20.045943   22.714900 C.3        1 MOL1        -0.1243
      12    H8      19.423303   20.216139   23.730817 H          1 MOL1         0.1025
      13    H9      19.908577   21.040425   22.258135 H          1 MOL1         0.1025
      14    C4      21.198400   19.381839   22.818869 C.3        1 MOL1        -0.2258
      15    H10     21.121180   18.349403   23.183926 H          1 MOL1         0.1036
      16    H11     21.833261   19.936829   23.521786 H          1 MOL1         0.1036
      17    H12     21.715601   19.378046   21.852345 H          1 MOL1         0.1036
@<TRIPOS>BOND
    1     1     2    1
    2     1     3    1
    3     1     4    1
    4     1     5    1
    5     5     6    1
    6     5     7    1
    7     5     8    1
    8     8     9    1
    9     8    10    1
   10     8    11    1
   11    11    12    1
   12    11    13    1
   13    11    14    1
   14    14    15    1
   15    14    16    1
   16    14    17    1
@<TRIPOS>SUBSTRUCTURE
       1 MOL1            1 RESIDUE      1      MOL     
@<SCITEGIC>MOL_PROPERTY
VConf Rank
SciTegic.value.IntegerValue
904

@<SCITEGIC>MOL_PROPERTY
Conf_Id
SciTegic.value.IntegerValue
44

@<SCITEGIC>MOL_PROPERTY
Delta U+W
SciTegic.value.DoubleValue
2.712

@<SCITEGIC>MOL_PROPERTY
U+W
SciTegic.value.DoubleValue
-13.153

@<SCITEGIC>MOL_PROPERTY
Grad RMS
SciTegic.value.DoubleValue
0.000000

@<SCITEGIC>MOL_PROPERTY
U
SciTegic.value.DoubleValue
47.423

@<SCITEGIC>MOL_PROPERTY
W
SciTegic.value.DoubleValue
-60.576

@<SCITEGIC>MOL_PROPERTY
W(PB)
SciTegic.value.DoubleValue
-62.262

@<SCITEGIC>MOL_PROPERTY
W(SA)
SciTegic.value.DoubleValue
1.687

@<SCITEGIC>MOL_PROPERTY
Valence
SciTegic.value.DoubleValue
2.414

@<SCITEGIC>MOL_PROPERTY
Coulomb
SciTegic.value.DoubleValue
44.831

@<SCITEGIC>MOL_PROPERTY
VdW
SciTegic.value.DoubleValue
0.178

@<SCITEGIC>MOL_PROPERTY
VdW6
SciTegic.value.DoubleValue
-3.743

@<SCITEGIC>MOL_PROPERTY
VdW12
SciTegic.value.DoubleValue
3.922

@<SCITEGIC>MOL_PROPERTY
Bond
SciTegic.value.DoubleValue
0.138

@<SCITEGIC>MOL_PROPERTY
Angle
SciTegic.value.DoubleValue
0.941

@<SCITEGIC>MOL_PROPERTY
Pdih
SciTegic.value.DoubleValue
1.335

@<SCITEGIC>MOL_PROPERTY
Idih
SciTegic.value.DoubleValue
0.000

@<SCITEGIC>MOL_PROPERTY
Tether
SciTegic.value.DoubleValue
0.000

@<TRIPOS>MOLECULE
guest-1_confgen4.mol2 : confsearch ligand conformer 905
          17          16           1
SMALL
USER_CHARGES
 
@<TRIPOS>ATOM
       1    N1      21.480492   20.117359   22.185114 N.4        1 MOL1        -0.5891
       2    H1      20.650100   20.528936   22.620430 H          1 MOL1         0.3726
       3    H2      21.788839   20.762192   21.451295 H          1 MOL1         0.3726
       4    H3      22.216679   20.104059   22.898219 H          1 MOL1         0.3726
       5    C1      21.199563   18.730914   21.638573 C.3        1 MOL1         0.0314
       6    H4      20.905698   18.089900   22.473767 H          1 MOL1         0.0999
       7    H5      22.133501   18.340385   21.225309 H          1 MOL1         0.0999
       8    C2      20.107069   18.700303   20.549795 C.3        1 MOL1        -0.1308
       9    H6      20.429499   19.314174   19.698355 H          1 MOL1         0.1025
      10    H7      20.018203   17.673762   20.170163 H          1 MOL1         0.1025
      11    C3      18.718735   19.185204   21.036577 C.3        1 MOL1        -0.1243
      12    H8      18.013735   19.142141   20.194540 H          1 MOL1         0.1025
      13    H9      18.770717   20.241239   21.334471 H          1 MOL1         0.1025
      14    C4      18.158081   18.341780   22.204524 C.3        1 MOL1        -0.2258
      15    H10     18.095396   17.280645   21.930428 H          1 MOL1         0.1036
      16    H11     17.148185   18.678382   22.472440 H          1 MOL1         0.1036
      17    H12     18.784150   18.427387   23.101551 H          1 MOL1         0.1036
@<TRIPOS>BOND
    1     1     2    1
    2     1     3    1
    3     1     4    1
    4     1     5    1
    5     5     6    1
    6     5     7    1
    7     5     8    1
    8     8     9    1
    9     8    10    1
   10     8    11    1
   11    11    12    1
   12    11    13    1
   13    11    14    1
   14    14    15    1
   15    14    16    1
   16    14    17    1
@<TRIPOS>SUBSTRUCTURE
       1 MOL1            1 RESIDUE      1      MOL     
@<SCITEGIC>MOL_PROPERTY
VConf Rank
SciTegic.value.IntegerValue
905

@<SCITEGIC>MOL_PROPERTY
Conf_Id
SciTegic.value.IntegerValue
1

@<SCITEGIC>MOL_PROPERTY
Delta U+W
SciTegic.value.DoubleValue
0.685

@<SCITEGIC>MOL_PROPERTY
U+W
SciTegic.value.DoubleValue
-15.179

@<SCITEGIC>MOL_PROPERTY
Grad RMS
SciTegic.value.DoubleValue
0.000000

@<SCITEGIC>MOL_PROPERTY
U
SciTegic.value.DoubleValue
45.697

@<SCITEGIC>MOL_PROPERTY
W
SciTegic.value.DoubleValue
-60.876

@<SCITEGIC>MOL_PROPERTY
W(PB)
SciTegic.value.DoubleValue
-62.586

@<SCITEGIC>MOL_PROPERTY
W(SA)
SciTegic.value.DoubleValue
1.710

@<SCITEGIC>MOL_PROPERTY
Valence
SciTegic.value.DoubleValue
1.263

@<SCITEGIC>MOL_PROPERTY
Coulomb
SciTegic.value.DoubleValue
44.179

@<SCITEGIC>MOL_PROPERTY
VdW
SciTegic.value.DoubleValue
0.255

@<SCITEGIC>MOL_PROPERTY
VdW6
SciTegic.value.DoubleValue
-3.552

@<SCITEGIC>MOL_PROPERTY
VdW12
SciTegic.value.DoubleValue
3.807

@<SCITEGIC>MOL_PROPERTY
Bond
SciTegic.value.DoubleValue
0.125

@<SCITEGIC>MOL_PROPERTY
Angle
SciTegic.value.DoubleValue
0.616

@<SCITEGIC>MOL_PROPERTY
Pdih
SciTegic.value.DoubleValue
0.521

@<SCITEGIC>MOL_PROPERTY
Idih
SciTegic.value.DoubleValue
0.000

@<SCITEGIC>MOL_PROPERTY
Tether
SciTegic.value.DoubleValue
0.000

@<TRIPOS>MOLECULE
guest-1_confgen4.mol2 : confsearch ligand conformer 906
          17          16           1
SMALL
USER_CHARGES
 
@<TRIPOS>ATOM
       1    N1      18.036951   19.638970   21.684476 N.4        1 MOL1        -0.5891
       2    H1      17.974443   20.651646   21.825750 H          1 MOL1         0.3726
       3    H2      18.259302   19.219895   22.591881 H          1 MOL1         0.3726
       4    H3      17.098743   19.315855   21.427511 H          1 MOL1         0.3726
       5    C1      19.066256   19.277110   20.631173 C.3        1 MOL1         0.0314
       6    H4      18.746789   19.724338   19.685940 H          1 MOL1         0.0999
       7    H5      19.060368   18.190807   20.509858 H          1 MOL1         0.0999
       8    C2      20.494253   19.755502   20.965665 C.3        1 MOL1        -0.1308
       9    H6      21.153915   19.507939   20.123429 H          1 MOL1         0.1025
      10    H7      20.498075   20.850678   21.045189 H          1 MOL1         0.1025
      11    C3      21.075524   19.143769   22.264690 C.3        1 MOL1        -0.1243
      12    H8      20.477704   19.458697   23.130764 H          1 MOL1         0.1025
      13    H9      22.083143   19.551293   22.427581 H          1 MOL1         0.1025
      14    C4      21.158675   17.600677   22.222860 C.3        1 MOL1        -0.2258
      15    H10     21.635307   17.215941   23.133776 H          1 MOL1         0.1036
      16    H11     21.753179   17.260656   21.364945 H          1 MOL1         0.1036
      17    H12     20.163359   17.144266   22.152253 H          1 MOL1         0.1036
@<TRIPOS>BOND
    1     1     2    1
    2     1     3    1
    3     1     4    1
    4     1     5    1
    5     5     6    1
    6     5     7    1
    7     5     8    1
    8     8     9    1
    9     8    10    1
   10     8    11    1
   11    11    12    1
   12    11    13    1
   13    11    14    1
   14    14    15    1
   15    14    16    1
   16    14    17    1
@<TRIPOS>SUBSTRUCTURE
       1 MOL1            1 RESIDUE      1      MOL     
@<SCITEGIC>MOL_PROPERTY
VConf Rank
SciTegic.value.IntegerValue
906

@<SCITEGIC>MOL_PROPERTY
Conf_Id
SciTegic.value.IntegerValue
43

@<SCITEGIC>MOL_PROPERTY
Delta U+W
SciTegic.value.DoubleValue
0.642

@<SCITEGIC>MOL_PROPERTY
U+W
SciTegic.value.DoubleValue
-15.222

@<SCITEGIC>MOL_PROPERTY
Grad RMS
SciTegic.value.DoubleValue
0.000000

@<SCITEGIC>MOL_PROPERTY
U
SciTegic.value.DoubleValue
45.697

@<SCITEGIC>MOL_PROPERTY
W
SciTegic.value.DoubleValue
-60.919

@<SCITEGIC>MOL_PROPERTY
W(PB)
SciTegic.value.DoubleValue
-62.631

@<SCITEGIC>MOL_PROPERTY
W(SA)
SciTegic.value.DoubleValue
1.712

@<SCITEGIC>MOL_PROPERTY
Valence
SciTegic.value.DoubleValue
1.262

@<SCITEGIC>MOL_PROPERTY
Coulomb
SciTegic.value.DoubleValue
44.179

@<SCITEGIC>MOL_PROPERTY
VdW
SciTegic.value.DoubleValue
0.255

@<SCITEGIC>MOL_PROPERTY
VdW6
SciTegic.value.DoubleValue
-3.552

@<SCITEGIC>MOL_PROPERTY
VdW12
SciTegic.value.DoubleValue
3.807

@<SCITEGIC>MOL_PROPERTY
Bond
SciTegic.value.DoubleValue
0.125

@<SCITEGIC>MOL_PROPERTY
Angle
SciTegic.value.DoubleValue
0.616

@<SCITEGIC>MOL_PROPERTY
Pdih
SciTegic.value.DoubleValue
0.521

@<SCITEGIC>MOL_PROPERTY
Idih
SciTegic.value.DoubleValue
0.000

@<SCITEGIC>MOL_PROPERTY
Tether
SciTegic.value.DoubleValue
0.000

@<TRIPOS>MOLECULE
guest-1_confgen4.mol2 : confsearch ligand conformer 907
          17          16           1
SMALL
USER_CHARGES
 
@<TRIPOS>ATOM
       1    N1      19.189240   17.463948   23.459533 N.4        1 MOL1        -0.5891
       2    H1      19.506099   16.592336   23.024114 H          1 MOL1         0.3726
       3    H2      18.181604   17.536362   23.288876 H          1 MOL1         0.3726
       4    H3      19.310988   17.351047   24.471135 H          1 MOL1         0.3726
       5    C1      19.942612   18.668835   22.932244 C.3        1 MOL1         0.0314
       6    H4      21.000612   18.538395   23.175438 H          1 MOL1         0.0999
       7    H5      19.576381   19.553530   23.460178 H          1 MOL1         0.0999
       8    C2      19.781433   18.868505   21.414214 C.3        1 MOL1        -0.1308
       9    H6      20.135842   17.972030   20.888174 H          1 MOL1         0.1025
      10    H7      18.716538   18.983820   21.171953 H          1 MOL1         0.1025
      11    C3      20.563657   20.104722   20.918821 C.3        1 MOL1        -0.1243
      12    H8      21.629194   19.991382   21.163998 H          1 MOL1         0.1025
      13    H9      20.211581   21.001944   21.447368 H          1 MOL1         0.1025
      14    C4      20.406712   20.311346   19.396773 C.3        1 MOL1        -0.2258
      15    H10     20.969397   21.193622   19.065077 H          1 MOL1         0.1036
      16    H11     19.353883   20.462199   19.124743 H          1 MOL1         0.1036
      17    H12     20.782634   19.443625   18.839144 H          1 MOL1         0.1036
@<TRIPOS>BOND
    1     1     2    1
    2     1     3    1
    3     1     4    1
    4     1     5    1
    5     5     6    1
    6     5     7    1
    7     5     8    1
    8     8     9    1
    9     8    10    1
   10     8    11    1
   11    11    12    1
   12    11    13    1
   13    11    14    1
   14    14    15    1
   15    14    16    1
   16    14    17    1
@<TRIPOS>SUBSTRUCTURE
       1 MOL1            1 RESIDUE      1      MOL     
@<SCITEGIC>MOL_PROPERTY
VConf Rank
SciTegic.value.IntegerValue
907

@<SCITEGIC>MOL_PROPERTY
Conf_Id
SciTegic.value.IntegerValue
7

@<SCITEGIC>MOL_PROPERTY
Delta U+W
SciTegic.value.DoubleValue
0.000

@<SCITEGIC>MOL_PROPERTY
U+W
SciTegic.value.DoubleValue
-15.865

@<SCITEGIC>MOL_PROPERTY
Grad RMS
SciTegic.value.DoubleValue
0.000000

@<SCITEGIC>MOL_PROPERTY
U
SciTegic.value.DoubleValue
44.664

@<SCITEGIC>MOL_PROPERTY
W
SciTegic.value.DoubleValue
-60.529

@<SCITEGIC>MOL_PROPERTY
W(PB)
SciTegic.value.DoubleValue
-62.309

@<SCITEGIC>MOL_PROPERTY
W(SA)
SciTegic.value.DoubleValue
1.780

@<SCITEGIC>MOL_PROPERTY
Valence
SciTegic.value.DoubleValue
0.872

@<SCITEGIC>MOL_PROPERTY
Coulomb
SciTegic.value.DoubleValue
43.648

@<SCITEGIC>MOL_PROPERTY
VdW
SciTegic.value.DoubleValue
0.144

@<SCITEGIC>MOL_PROPERTY
VdW6
SciTegic.value.DoubleValue
-2.370

@<SCITEGIC>MOL_PROPERTY
VdW12
SciTegic.value.DoubleValue
2.515

@<SCITEGIC>MOL_PROPERTY
Bond
SciTegic.value.DoubleValue
0.080

@<SCITEGIC>MOL_PROPERTY
Angle
SciTegic.value.DoubleValue
0.376

@<SCITEGIC>MOL_PROPERTY
Pdih
SciTegic.value.DoubleValue
0.416

@<SCITEGIC>MOL_PROPERTY
Idih
SciTegic.value.DoubleValue
0.000

@<SCITEGIC>MOL_PROPERTY
Tether
SciTegic.value.DoubleValue
0.000

@<TRIPOS>MOLECULE
guest-1_confgen4.mol2 : confsearch ligand conformer 908
          17          16           1
SMALL
USER_CHARGES
 
@<TRIPOS>ATOM
       1    N1      19.761070   17.471843   19.842255 N.4        1 MOL1        -0.5891
       2    H1      19.825727   16.533199   20.247737 H          1 MOL1         0.3726
       3    H2      20.659469   17.666507   19.389893 H          1 MOL1         0.3726
       4    H3      19.058210   17.425023   19.097514 H          1 MOL1         0.3726
       5    C1      19.411181   18.517000   20.882727 C.3        1 MOL1         0.0314
       6    H4      18.432737   18.264131   21.299997 H          1 MOL1         0.0999
       7    H5      19.328683   19.481617   20.375238 H          1 MOL1         0.0999
       8    C2      20.448398   18.613998   22.017950 C.3        1 MOL1        -0.1308
       9    H6      20.552909   17.630367   22.494841 H          1 MOL1         0.1025
      10    H7      21.431461   18.866325   21.598657 H          1 MOL1         0.1025
      11    C3      20.060260   19.655828   23.093098 C.3        1 MOL1        -0.1243
      12    H8      20.795600   19.617604   23.909062 H          1 MOL1         0.1025
      13    H9      19.091721   19.386220   23.537424 H          1 MOL1         0.1025
      14    C4      19.994584   21.098279   22.540849 C.3        1 MOL1        -0.2258
      15    H10     20.949561   21.390762   22.085222 H          1 MOL1         0.1036
      16    H11     19.776963   21.809862   23.347879 H          1 MOL1         0.1036
      17    H12     19.206847   21.205210   21.784458 H          1 MOL1         0.1036
@<TRIPOS>BOND
    1     1     2    1
    2     1     3    1
    3     1     4    1
    4     1     5    1
    5     5     6    1
    6     5     7    1
    7     5     8    1
    8     8     9    1
    9     8    10    1
   10     8    11    1
   11    11    12    1
   12    11    13    1
   13    11    14    1
   14    14    15    1
   15    14    16    1
   16    14    17    1
@<TRIPOS>SUBSTRUCTURE
       1 MOL1            1 RESIDUE      1      MOL     
@<SCITEGIC>MOL_PROPERTY
VConf Rank
SciTegic.value.IntegerValue
908

@<SCITEGIC>MOL_PROPERTY
Conf_Id
SciTegic.value.IntegerValue
36

@<SCITEGIC>MOL_PROPERTY
Delta U+W
SciTegic.value.DoubleValue
0.275

@<SCITEGIC>MOL_PROPERTY
U+W
SciTegic.value.DoubleValue
-15.590

@<SCITEGIC>MOL_PROPERTY
Grad RMS
SciTegic.value.DoubleValue
0.000000

@<SCITEGIC>MOL_PROPERTY
U
SciTegic.value.DoubleValue
45.174

@<SCITEGIC>MOL_PROPERTY
W
SciTegic.value.DoubleValue
-60.765

@<SCITEGIC>MOL_PROPERTY
W(PB)
SciTegic.value.DoubleValue
-62.518

@<SCITEGIC>MOL_PROPERTY
W(SA)
SciTegic.value.DoubleValue
1.754

@<SCITEGIC>MOL_PROPERTY
Valence
SciTegic.value.DoubleValue
1.161

@<SCITEGIC>MOL_PROPERTY
Coulomb
SciTegic.value.DoubleValue
43.789

@<SCITEGIC>MOL_PROPERTY
VdW
SciTegic.value.DoubleValue
0.224

@<SCITEGIC>MOL_PROPERTY
VdW6
SciTegic.value.DoubleValue
-2.897

@<SCITEGIC>MOL_PROPERTY
VdW12
SciTegic.value.DoubleValue
3.121

@<SCITEGIC>MOL_PROPERTY
Bond
SciTegic.value.DoubleValue
0.100

@<SCITEGIC>MOL_PROPERTY
Angle
SciTegic.value.DoubleValue
0.500

@<SCITEGIC>MOL_PROPERTY
Pdih
SciTegic.value.DoubleValue
0.561

@<SCITEGIC>MOL_PROPERTY
Idih
SciTegic.value.DoubleValue
0.000

@<SCITEGIC>MOL_PROPERTY
Tether
SciTegic.value.DoubleValue
0.000

@<TRIPOS>MOLECULE
guest-1_confgen4.mol2 : confsearch ligand conformer 909
          17          16           1
SMALL
USER_CHARGES
 
@<TRIPOS>ATOM
       1    N1      19.442227   19.953837   20.093263 N.4        1 MOL1        -0.5891
       2    H1      20.458036   19.843461   20.146136 H          1 MOL1         0.3726
       3    H2      19.224364   20.899313   20.422034 H          1 MOL1         0.3726
       4    H3      19.185192   19.917383   19.101584 H          1 MOL1         0.3726
       5    C1      18.718723   18.895022   20.902882 C.3        1 MOL1         0.0314
       6    H4      18.933469   17.915911   20.466387 H          1 MOL1         0.0999
       7    H5      17.647587   19.085768   20.794149 H          1 MOL1         0.0999
       8    C2      19.078341   18.888101   22.403628 C.3        1 MOL1        -0.1308
       9    H6      19.103390   19.916158   22.788595 H          1 MOL1         0.1025
      10    H7      18.263389   18.385116   22.940942 H          1 MOL1         0.1025
      11    C3      20.399361   18.152353   22.744636 C.3        1 MOL1        -0.1243
      12    H8      20.337125   17.107116   22.410529 H          1 MOL1         0.1025
      13    H9      20.502828   18.116032   23.838237 H          1 MOL1         0.1025
      14    C4      21.667335   18.807897   22.151856 C.3        1 MOL1        -0.2258
      15    H10     21.713166   18.683874   21.063649 H          1 MOL1         0.1036
      16    H11     22.568308   18.338453   22.567818 H          1 MOL1         0.1036
      17    H12     21.710356   19.878922   22.388937 H          1 MOL1         0.1036
@<TRIPOS>BOND
    1     1     2    1
    2     1     3    1
    3     1     4    1
    4     1     5    1
    5     5     6    1
    6     5     7    1
    7     5     8    1
    8     8     9    1
    9     8    10    1
   10     8    11    1
   11    11    12    1
   12    11    13    1
   13    11    14    1
   14    14    15    1
   15    14    16    1
   16    14    17    1
@<TRIPOS>SUBSTRUCTURE
       1 MOL1            1 RESIDUE      1      MOL     
@<SCITEGIC>MOL_PROPERTY
VConf Rank
SciTegic.value.IntegerValue
909

@<SCITEGIC>MOL_PROPERTY
Conf_Id
SciTegic.value.IntegerValue
19

@<SCITEGIC>MOL_PROPERTY
Delta U+W
SciTegic.value.DoubleValue
2.662

@<SCITEGIC>MOL_PROPERTY
U+W
SciTegic.value.DoubleValue
-13.203

@<SCITEGIC>MOL_PROPERTY
Grad RMS
SciTegic.value.DoubleValue
0.000000

@<SCITEGIC>MOL_PROPERTY
U
SciTegic.value.DoubleValue
47.423

@<SCITEGIC>MOL_PROPERTY
W
SciTegic.value.DoubleValue
-60.626

@<SCITEGIC>MOL_PROPERTY
W(PB)
SciTegic.value.DoubleValue
-62.328

@<SCITEGIC>MOL_PROPERTY
W(SA)
SciTegic.value.DoubleValue
1.702

@<SCITEGIC>MOL_PROPERTY
Valence
SciTegic.value.DoubleValue
2.414

@<SCITEGIC>MOL_PROPERTY
Coulomb
SciTegic.value.DoubleValue
44.831

@<SCITEGIC>MOL_PROPERTY
VdW
SciTegic.value.DoubleValue
0.178

@<SCITEGIC>MOL_PROPERTY
VdW6
SciTegic.value.DoubleValue
-3.743

@<SCITEGIC>MOL_PROPERTY
VdW12
SciTegic.value.DoubleValue
3.921

@<SCITEGIC>MOL_PROPERTY
Bond
SciTegic.value.DoubleValue
0.138

@<SCITEGIC>MOL_PROPERTY
Angle
SciTegic.value.DoubleValue
0.941

@<SCITEGIC>MOL_PROPERTY
Pdih
SciTegic.value.DoubleValue
1.335

@<SCITEGIC>MOL_PROPERTY
Idih
SciTegic.value.DoubleValue
0.000

@<SCITEGIC>MOL_PROPERTY
Tether
SciTegic.value.DoubleValue
0.000

@<TRIPOS>MOLECULE
guest-1_confgen4.mol2 : confsearch ligand conformer 910
          17          16           1
SMALL
USER_CHARGES
 
@<TRIPOS>ATOM
       1    N1      19.714985   19.986267   19.996452 N.4        1 MOL1        -0.5891
       2    H1      19.610221   20.900248   19.544248 H          1 MOL1         0.3726
       3    H2      19.540550   19.277475   19.277656 H          1 MOL1         0.3726
       4    H3      20.695583   19.897695   20.274707 H          1 MOL1         0.3726
       5    C1      18.778682   19.831484   21.179422 C.3        1 MOL1         0.0314
       6    H4      17.759847   19.936864   20.796790 H          1 MOL1         0.0999
       7    H5      18.963223   20.651136   21.879004 H          1 MOL1         0.0999
       8    C2      18.902574   18.479932   21.913977 C.3        1 MOL1        -0.1308
       9    H6      17.970875   18.315046   22.471288 H          1 MOL1         0.1025
      10    H7      18.966582   17.660940   21.185359 H          1 MOL1         0.1025
      11    C3      20.079675   18.400352   22.919364 C.3        1 MOL1        -0.1243
      12    H8      20.011126   17.444433   23.457425 H          1 MOL1         0.1025
      13    H9      19.969548   19.185796   23.680267 H          1 MOL1         0.1025
      14    C4      21.480016   18.502049   22.273159 C.3        1 MOL1        -0.2258
      15    H10     21.588507   17.791908   21.443049 H          1 MOL1         0.1036
      16    H11     22.257943   18.271172   23.012538 H          1 MOL1         0.1036
      17    H12     21.679274   19.514048   21.901899 H          1 MOL1         0.1036
@<TRIPOS>BOND
    1     1     2    1
    2     1     3    1
    3     1     4    1
    4     1     5    1
    5     5     6    1
    6     5     7    1
    7     5     8    1
    8     8     9    1
    9     8    10    1
   10     8    11    1
   11    11    12    1
   12    11    13    1
   13    11    14    1
   14    14    15    1
   15    14    16    1
   16    14    17    1
@<TRIPOS>SUBSTRUCTURE
       1 MOL1            1 RESIDUE      1      MOL     
@<SCITEGIC>MOL_PROPERTY
VConf Rank
SciTegic.value.IntegerValue
910

@<SCITEGIC>MOL_PROPERTY
Conf_Id
SciTegic.value.IntegerValue
44

@<SCITEGIC>MOL_PROPERTY
Delta U+W
SciTegic.value.DoubleValue
2.712

@<SCITEGIC>MOL_PROPERTY
U+W
SciTegic.value.DoubleValue
-13.153

@<SCITEGIC>MOL_PROPERTY
Grad RMS
SciTegic.value.DoubleValue
0.000000

@<SCITEGIC>MOL_PROPERTY
U
SciTegic.value.DoubleValue
47.423

@<SCITEGIC>MOL_PROPERTY
W
SciTegic.value.DoubleValue
-60.576

@<SCITEGIC>MOL_PROPERTY
W(PB)
SciTegic.value.DoubleValue
-62.262

@<SCITEGIC>MOL_PROPERTY
W(SA)
SciTegic.value.DoubleValue
1.687

@<SCITEGIC>MOL_PROPERTY
Valence
SciTegic.value.DoubleValue
2.414

@<SCITEGIC>MOL_PROPERTY
Coulomb
SciTegic.value.DoubleValue
44.831

@<SCITEGIC>MOL_PROPERTY
VdW
SciTegic.value.DoubleValue
0.178

@<SCITEGIC>MOL_PROPERTY
VdW6
SciTegic.value.DoubleValue
-3.743

@<SCITEGIC>MOL_PROPERTY
VdW12
SciTegic.value.DoubleValue
3.922

@<SCITEGIC>MOL_PROPERTY
Bond
SciTegic.value.DoubleValue
0.138

@<SCITEGIC>MOL_PROPERTY
Angle
SciTegic.value.DoubleValue
0.941

@<SCITEGIC>MOL_PROPERTY
Pdih
SciTegic.value.DoubleValue
1.335

@<SCITEGIC>MOL_PROPERTY
Idih
SciTegic.value.DoubleValue
0.000

@<SCITEGIC>MOL_PROPERTY
Tether
SciTegic.value.DoubleValue
0.000

@<TRIPOS>MOLECULE
guest-1_confgen4.mol2 : confsearch ligand conformer 911
          17          16           1
SMALL
USER_CHARGES
 
@<TRIPOS>ATOM
       1    N1      19.388514   19.744639   19.819716 N.4        1 MOL1        -0.5891
       2    H1      19.805303   18.822159   19.665561 H          1 MOL1         0.3726
       3    H2      20.057488   20.440393   19.476529 H          1 MOL1         0.3726
       4    H3      18.561744   19.803976   19.216724 H          1 MOL1         0.3726
       5    C1      19.039586   19.966780   21.278744 C.3        1 MOL1         0.0314
       6    H4      18.303755   19.212925   21.570395 H          1 MOL1         0.0999
       7    H5      18.567703   20.949570   21.362341 H          1 MOL1         0.0999
       8    C2      20.254975   19.901523   22.226631 C.3        1 MOL1        -0.1308
       9    H6      20.969485   20.688522   21.951212 H          1 MOL1         0.1025
      10    H7      19.918977   20.136648   23.245270 H          1 MOL1         0.1025
      11    C3      20.976771   18.530926   22.232120 C.3        1 MOL1        -0.1243
      12    H8      21.831807   18.584140   22.920586 H          1 MOL1         0.1025
      13    H9      21.399340   18.322731   21.239777 H          1 MOL1         0.1025
      14    C4      20.057888   17.364412   22.661886 C.3        1 MOL1        -0.2258
      15    H10     19.623435   17.548855   23.652995 H          1 MOL1         0.1036
      16    H11     20.625624   16.426406   22.714708 H          1 MOL1         0.1036
      17    H12     19.236248   17.214159   21.950352 H          1 MOL1         0.1036
@<TRIPOS>BOND
    1     1     2    1
    2     1     3    1
    3     1     4    1
    4     1     5    1
    5     5     6    1
    6     5     7    1
    7     5     8    1
    8     8     9    1
    9     8    10    1
   10     8    11    1
   11    11    12    1
   12    11    13    1
   13    11    14    1
   14    14    15    1
   15    14    16    1
   16    14    17    1
@<TRIPOS>SUBSTRUCTURE
       1 MOL1            1 RESIDUE      1      MOL     
@<SCITEGIC>MOL_PROPERTY
VConf Rank
SciTegic.value.IntegerValue
911

@<SCITEGIC>MOL_PROPERTY
Conf_Id
SciTegic.value.IntegerValue
1

@<SCITEGIC>MOL_PROPERTY
Delta U+W
SciTegic.value.DoubleValue
0.685

@<SCITEGIC>MOL_PROPERTY
U+W
SciTegic.value.DoubleValue
-15.179

@<SCITEGIC>MOL_PROPERTY
Grad RMS
SciTegic.value.DoubleValue
0.000000

@<SCITEGIC>MOL_PROPERTY
U
SciTegic.value.DoubleValue
45.697

@<SCITEGIC>MOL_PROPERTY
W
SciTegic.value.DoubleValue
-60.876

@<SCITEGIC>MOL_PROPERTY
W(PB)
SciTegic.value.DoubleValue
-62.586

@<SCITEGIC>MOL_PROPERTY
W(SA)
SciTegic.value.DoubleValue
1.710

@<SCITEGIC>MOL_PROPERTY
Valence
SciTegic.value.DoubleValue
1.263

@<SCITEGIC>MOL_PROPERTY
Coulomb
SciTegic.value.DoubleValue
44.179

@<SCITEGIC>MOL_PROPERTY
VdW
SciTegic.value.DoubleValue
0.255

@<SCITEGIC>MOL_PROPERTY
VdW6
SciTegic.value.DoubleValue
-3.552

@<SCITEGIC>MOL_PROPERTY
VdW12
SciTegic.value.DoubleValue
3.807

@<SCITEGIC>MOL_PROPERTY
Bond
SciTegic.value.DoubleValue
0.125

@<SCITEGIC>MOL_PROPERTY
Angle
SciTegic.value.DoubleValue
0.616

@<SCITEGIC>MOL_PROPERTY
Pdih
SciTegic.value.DoubleValue
0.521

@<SCITEGIC>MOL_PROPERTY
Idih
SciTegic.value.DoubleValue
0.000

@<SCITEGIC>MOL_PROPERTY
Tether
SciTegic.value.DoubleValue
0.000

@<TRIPOS>MOLECULE
guest-1_confgen4.mol2 : confsearch ligand conformer 912
          17          16           1
SMALL
USER_CHARGES
 
@<TRIPOS>ATOM
       1    N1      19.737663   17.052496   21.602302 N.4        1 MOL1        -0.5891
       2    H1      20.649852   16.588119   21.642845 H          1 MOL1         0.3726
       3    H2      19.600427   17.366435   20.637389 H          1 MOL1         0.3726
       4    H3      19.029750   16.334550   21.786913 H          1 MOL1         0.3726
       5    C1      19.644184   18.202867   22.586052 C.3        1 MOL1         0.0314
       6    H4      19.761818   17.791053   23.592088 H          1 MOL1         0.0999
       7    H5      18.641720   18.632266   22.511982 H          1 MOL1         0.0999
       8    C2      20.700072   19.304317   22.358392 C.3        1 MOL1        -0.1308
       9    H6      20.597992   20.057850   23.150585 H          1 MOL1         0.1025
      10    H7      21.702705   18.872061   22.475139 H          1 MOL1         0.1025
      11    C3      20.597617   19.999606   20.977944 C.3        1 MOL1        -0.1243
      12    H8      20.789066   19.274851   20.174993 H          1 MOL1         0.1025
      13    H9      21.393499   20.753705   20.901716 H          1 MOL1         0.1025
      14    C4      19.231932   20.685615   20.745367 C.3        1 MOL1        -0.2258
      15    H10     19.227450   21.219089   19.786016 H          1 MOL1         0.1036
      16    H11     19.017900   21.416708   21.535786 H          1 MOL1         0.1036
      17    H12     18.412338   19.956452   20.722230 H          1 MOL1         0.1036
@<TRIPOS>BOND
    1     1     2    1
    2     1     3    1
    3     1     4    1
    4     1     5    1
    5     5     6    1
    6     5     7    1
    7     5     8    1
    8     8     9    1
    9     8    10    1
   10     8    11    1
   11    11    12    1
   12    11    13    1
   13    11    14    1
   14    14    15    1
   15    14    16    1
   16    14    17    1
@<TRIPOS>SUBSTRUCTURE
       1 MOL1            1 RESIDUE      1      MOL     
@<SCITEGIC>MOL_PROPERTY
VConf Rank
SciTegic.value.IntegerValue
912

@<SCITEGIC>MOL_PROPERTY
Conf_Id
SciTegic.value.IntegerValue
43

@<SCITEGIC>MOL_PROPERTY
Delta U+W
SciTegic.value.DoubleValue
0.642

@<SCITEGIC>MOL_PROPERTY
U+W
SciTegic.value.DoubleValue
-15.222

@<SCITEGIC>MOL_PROPERTY
Grad RMS
SciTegic.value.DoubleValue
0.000000

@<SCITEGIC>MOL_PROPERTY
U
SciTegic.value.DoubleValue
45.697

@<SCITEGIC>MOL_PROPERTY
W
SciTegic.value.DoubleValue
-60.919

@<SCITEGIC>MOL_PROPERTY
W(PB)
SciTegic.value.DoubleValue
-62.631

@<SCITEGIC>MOL_PROPERTY
W(SA)
SciTegic.value.DoubleValue
1.712

@<SCITEGIC>MOL_PROPERTY
Valence
SciTegic.value.DoubleValue
1.262

@<SCITEGIC>MOL_PROPERTY
Coulomb
SciTegic.value.DoubleValue
44.179

@<SCITEGIC>MOL_PROPERTY
VdW
SciTegic.value.DoubleValue
0.255

@<SCITEGIC>MOL_PROPERTY
VdW6
SciTegic.value.DoubleValue
-3.552

@<SCITEGIC>MOL_PROPERTY
VdW12
SciTegic.value.DoubleValue
3.807

@<SCITEGIC>MOL_PROPERTY
Bond
SciTegic.value.DoubleValue
0.125

@<SCITEGIC>MOL_PROPERTY
Angle
SciTegic.value.DoubleValue
0.616

@<SCITEGIC>MOL_PROPERTY
Pdih
SciTegic.value.DoubleValue
0.521

@<SCITEGIC>MOL_PROPERTY
Idih
SciTegic.value.DoubleValue
0.000

@<SCITEGIC>MOL_PROPERTY
Tether
SciTegic.value.DoubleValue
0.000

@<TRIPOS>MOLECULE
guest-1_confgen4.mol2 : confsearch ligand conformer 913
          17          16           1
SMALL
USER_CHARGES
 
@<TRIPOS>ATOM
       1    N1      17.844089   20.498172   21.355853 N.4        1 MOL1        -0.5891
       2    H1      17.245285   19.782344   20.933101 H          1 MOL1         0.3726
       3    H2      18.179329   21.097277   20.595336 H          1 MOL1         0.3726
       4    H3      17.239838   21.079012   21.946118 H          1 MOL1         0.3726
       5    C1      18.986134   19.889649   22.145023 C.3        1 MOL1         0.0314
       6    H4      18.556860   19.291931   22.953714 H          1 MOL1         0.0999
       7    H5      19.561240   20.705912   22.590548 H          1 MOL1         0.0999
       8    C2      19.914724   19.009986   21.288183 C.3        1 MOL1        -0.1308
       9    H6      19.330862   18.200536   20.830048 H          1 MOL1         0.1025
      10    H7      20.331898   19.609681   20.468230 H          1 MOL1         0.1025
      11    C3      21.062869   18.410368   22.129457 C.3        1 MOL1        -0.1243
      12    H8      20.645871   17.812670   22.952376 H          1 MOL1         0.1025
      13    H9      21.645728   19.220082   22.590939 H          1 MOL1         0.1025
      14    C4      21.998538   17.526607   21.276554 C.3        1 MOL1        -0.2258
      15    H10     22.806652   17.110532   21.892089 H          1 MOL1         0.1036
      16    H11     22.458133   18.105687   20.464985 H          1 MOL1         0.1036
      17    H12     21.450359   16.687199   20.829227 H          1 MOL1         0.1036
@<TRIPOS>BOND
    1     1     2    1
    2     1     3    1
    3     1     4    1
    4     1     5    1
    5     5     6    1
    6     5     7    1
    7     5     8    1
    8     8     9    1
    9     8    10    1
   10     8    11    1
   11    11    12    1
   12    11    13    1
   13    11    14    1
   14    14    15    1
   15    14    16    1
   16    14    17    1
@<TRIPOS>SUBSTRUCTURE
       1 MOL1            1 RESIDUE      1      MOL     
@<SCITEGIC>MOL_PROPERTY
VConf Rank
SciTegic.value.IntegerValue
913

@<SCITEGIC>MOL_PROPERTY
Conf_Id
SciTegic.value.IntegerValue
7

@<SCITEGIC>MOL_PROPERTY
Delta U+W
SciTegic.value.DoubleValue
0.000

@<SCITEGIC>MOL_PROPERTY
U+W
SciTegic.value.DoubleValue
-15.865

@<SCITEGIC>MOL_PROPERTY
Grad RMS
SciTegic.value.DoubleValue
0.000000

@<SCITEGIC>MOL_PROPERTY
U
SciTegic.value.DoubleValue
44.664

@<SCITEGIC>MOL_PROPERTY
W
SciTegic.value.DoubleValue
-60.529

@<SCITEGIC>MOL_PROPERTY
W(PB)
SciTegic.value.DoubleValue
-62.309

@<SCITEGIC>MOL_PROPERTY
W(SA)
SciTegic.value.DoubleValue
1.780

@<SCITEGIC>MOL_PROPERTY
Valence
SciTegic.value.DoubleValue
0.872

@<SCITEGIC>MOL_PROPERTY
Coulomb
SciTegic.value.DoubleValue
43.648

@<SCITEGIC>MOL_PROPERTY
VdW
SciTegic.value.DoubleValue
0.144

@<SCITEGIC>MOL_PROPERTY
VdW6
SciTegic.value.DoubleValue
-2.370

@<SCITEGIC>MOL_PROPERTY
VdW12
SciTegic.value.DoubleValue
2.515

@<SCITEGIC>MOL_PROPERTY
Bond
SciTegic.value.DoubleValue
0.080

@<SCITEGIC>MOL_PROPERTY
Angle
SciTegic.value.DoubleValue
0.376

@<SCITEGIC>MOL_PROPERTY
Pdih
SciTegic.value.DoubleValue
0.416

@<SCITEGIC>MOL_PROPERTY
Idih
SciTegic.value.DoubleValue
0.000

@<SCITEGIC>MOL_PROPERTY
Tether
SciTegic.value.DoubleValue
0.000

@<TRIPOS>MOLECULE
guest-1_confgen4.mol2 : confsearch ligand conformer 914
          17          16           1
SMALL
USER_CHARGES
 
@<TRIPOS>ATOM
       1    N1      20.606653   20.220499   19.594555 N.4        1 MOL1        -0.5891
       2    H1      21.147706   21.053224   19.846507 H          1 MOL1         0.3726
       3    H2      19.680760   20.542313   19.296556 H          1 MOL1         0.3726
       4    H3      21.058186   19.812233   18.769764 H          1 MOL1         0.3726
       5    C1      20.522261   19.230416   20.739094 C.3        1 MOL1         0.0314
       6    H4      21.538277   18.908656   20.983203 H          1 MOL1         0.0999
       7    H5      19.961520   18.359750   20.389310 H          1 MOL1         0.0999
       8    C2      19.847726   19.812306   21.996219 C.3        1 MOL1        -0.1308
       9    H6      20.394989   20.709130   22.315729 H          1 MOL1         0.1025
      10    H7      18.827852   20.137005   21.750623 H          1 MOL1         0.1025
      11    C3      19.803052   18.805432   23.169341 C.3        1 MOL1        -0.1243
      12    H8      19.385637   19.306463   24.054053 H          1 MOL1         0.1025
      13    H9      20.825480   18.504757   23.438444 H          1 MOL1         0.1025
      14    C4      18.958070   17.549398   22.855746 C.3        1 MOL1        -0.2258
      15    H10     17.931926   17.822881   22.577607 H          1 MOL1         0.1036
      16    H11     18.903167   16.893291   23.734106 H          1 MOL1         0.1036
      17    H12     19.392118   16.966019   22.033942 H          1 MOL1         0.1036
@<TRIPOS>BOND
    1     1     2    1
    2     1     3    1
    3     1     4    1
    4     1     5    1
    5     5     6    1
    6     5     7    1
    7     5     8    1
    8     8     9    1
    9     8    10    1
   10     8    11    1
   11    11    12    1
   12    11    13    1
   13    11    14    1
   14    14    15    1
   15    14    16    1
   16    14    17    1
@<TRIPOS>SUBSTRUCTURE
       1 MOL1            1 RESIDUE      1      MOL     
@<SCITEGIC>MOL_PROPERTY
VConf Rank
SciTegic.value.IntegerValue
914

@<SCITEGIC>MOL_PROPERTY
Conf_Id
SciTegic.value.IntegerValue
36

@<SCITEGIC>MOL_PROPERTY
Delta U+W
SciTegic.value.DoubleValue
0.275

@<SCITEGIC>MOL_PROPERTY
U+W
SciTegic.value.DoubleValue
-15.590

@<SCITEGIC>MOL_PROPERTY
Grad RMS
SciTegic.value.DoubleValue
0.000000

@<SCITEGIC>MOL_PROPERTY
U
SciTegic.value.DoubleValue
45.174

@<SCITEGIC>MOL_PROPERTY
W
SciTegic.value.DoubleValue
-60.765

@<SCITEGIC>MOL_PROPERTY
W(PB)
SciTegic.value.DoubleValue
-62.518

@<SCITEGIC>MOL_PROPERTY
W(SA)
SciTegic.value.DoubleValue
1.754

@<SCITEGIC>MOL_PROPERTY
Valence
SciTegic.value.DoubleValue
1.161

@<SCITEGIC>MOL_PROPERTY
Coulomb
SciTegic.value.DoubleValue
43.789

@<SCITEGIC>MOL_PROPERTY
VdW
SciTegic.value.DoubleValue
0.224

@<SCITEGIC>MOL_PROPERTY
VdW6
SciTegic.value.DoubleValue
-2.897

@<SCITEGIC>MOL_PROPERTY
VdW12
SciTegic.value.DoubleValue
3.121

@<SCITEGIC>MOL_PROPERTY
Bond
SciTegic.value.DoubleValue
0.100

@<SCITEGIC>MOL_PROPERTY
Angle
SciTegic.value.DoubleValue
0.500

@<SCITEGIC>MOL_PROPERTY
Pdih
SciTegic.value.DoubleValue
0.561

@<SCITEGIC>MOL_PROPERTY
Idih
SciTegic.value.DoubleValue
0.000

@<SCITEGIC>MOL_PROPERTY
Tether
SciTegic.value.DoubleValue
0.000

@<TRIPOS>MOLECULE
guest-1_confgen4.mol2 : confsearch ligand conformer 915
          17          16           1
SMALL
USER_CHARGES
 
@<TRIPOS>ATOM
       1    N1      19.900804   18.680832   23.434437 N.4        1 MOL1        -0.5891
       2    H1      19.500391   17.893626   22.917889 H          1 MOL1         0.3726
       3    H2      19.117685   19.232479   23.797604 H          1 MOL1         0.3726
       4    H3      20.391874   18.291812   24.245816 H          1 MOL1         0.3726
       5    C1      20.821515   19.514389   22.564089 C.3        1 MOL1         0.0314
       6    H4      21.670648   18.895152   22.262723 H          1 MOL1         0.0999
       7    H5      21.201359   20.328048   23.187959 H          1 MOL1         0.0999
       8    C2      20.142642   20.113820   21.314519 C.3        1 MOL1        -0.1308
       9    H6      19.159886   20.524444   21.581552 H          1 MOL1         0.1025
      10    H7      20.746442   20.969099   20.983203 H          1 MOL1         0.1025
      11    C3      20.011028   19.132818   20.121616 C.3        1 MOL1        -0.1243
      12    H8      21.007549   18.777861   19.823332 H          1 MOL1         0.1025
      13    H9      19.615558   19.687764   19.259278 H          1 MOL1         0.1025
      14    C4      19.091346   17.919978   20.390104 C.3        1 MOL1        -0.2258
      15    H10     19.546319   17.219361   21.099901 H          1 MOL1         0.1036
      16    H11     18.911977   17.365191   19.459946 H          1 MOL1         0.1036
      17    H12     18.116175   18.238042   20.781293 H          1 MOL1         0.1036
@<TRIPOS>BOND
    1     1     2    1
    2     1     3    1
    3     1     4    1
    4     1     5    1
    5     5     6    1
    6     5     7    1
    7     5     8    1
    8     8     9    1
    9     8    10    1
   10     8    11    1
   11    11    12    1
   12    11    13    1
   13    11    14    1
   14    14    15    1
   15    14    16    1
   16    14    17    1
@<TRIPOS>SUBSTRUCTURE
       1 MOL1            1 RESIDUE      1      MOL     
@<SCITEGIC>MOL_PROPERTY
VConf Rank
SciTegic.value.IntegerValue
915

@<SCITEGIC>MOL_PROPERTY
Conf_Id
SciTegic.value.IntegerValue
19

@<SCITEGIC>MOL_PROPERTY
Delta U+W
SciTegic.value.DoubleValue
2.662

@<SCITEGIC>MOL_PROPERTY
U+W
SciTegic.value.DoubleValue
-13.203

@<SCITEGIC>MOL_PROPERTY
Grad RMS
SciTegic.value.DoubleValue
0.000000

@<SCITEGIC>MOL_PROPERTY
U
SciTegic.value.DoubleValue
47.423

@<SCITEGIC>MOL_PROPERTY
W
SciTegic.value.DoubleValue
-60.626

@<SCITEGIC>MOL_PROPERTY
W(PB)
SciTegic.value.DoubleValue
-62.328

@<SCITEGIC>MOL_PROPERTY
W(SA)
SciTegic.value.DoubleValue
1.702

@<SCITEGIC>MOL_PROPERTY
Valence
SciTegic.value.DoubleValue
2.414

@<SCITEGIC>MOL_PROPERTY
Coulomb
SciTegic.value.DoubleValue
44.831

@<SCITEGIC>MOL_PROPERTY
VdW
SciTegic.value.DoubleValue
0.178

@<SCITEGIC>MOL_PROPERTY
VdW6
SciTegic.value.DoubleValue
-3.743

@<SCITEGIC>MOL_PROPERTY
VdW12
SciTegic.value.DoubleValue
3.921

@<SCITEGIC>MOL_PROPERTY
Bond
SciTegic.value.DoubleValue
0.138

@<SCITEGIC>MOL_PROPERTY
Angle
SciTegic.value.DoubleValue
0.941

@<SCITEGIC>MOL_PROPERTY
Pdih
SciTegic.value.DoubleValue
1.335

@<SCITEGIC>MOL_PROPERTY
Idih
SciTegic.value.DoubleValue
0.000

@<SCITEGIC>MOL_PROPERTY
Tether
SciTegic.value.DoubleValue
0.000

@<TRIPOS>MOLECULE
guest-1_confgen4.mol2 : confsearch ligand conformer 916
          17          16           1
SMALL
USER_CHARGES
 
@<TRIPOS>ATOM
       1    N1      19.215165   20.384783   22.723543 N.4        1 MOL1        -0.5891
       2    H1      19.356577   20.927530   23.581594 H          1 MOL1         0.3726
       3    H2      18.253575   20.559633   22.416540 H          1 MOL1         0.3726
       4    H3      19.834863   20.779106   22.011274 H          1 MOL1         0.3726
       5    C1      19.477320   18.906955   22.941121 C.3        1 MOL1         0.0314
       6    H4      18.777184   18.567695   23.709398 H          1 MOL1         0.0999
       7    H5      20.491433   18.787114   23.331652 H          1 MOL1         0.0999
       8    C2      19.297820   18.038140   21.678366 C.3        1 MOL1        -0.1308
       9    H6      19.131372   17.003018   22.004960 H          1 MOL1         0.1025
      10    H7      18.385739   18.335725   21.144250 H          1 MOL1         0.1025
      11    C3      20.512729   18.044574   20.715735 C.3        1 MOL1        -0.1243
      12    H8      20.322082   17.318328   19.913107 H          1 MOL1         0.1025
      13    H9      21.405877   17.684405   21.245439 H          1 MOL1         0.1025
      14    C4      20.813096   19.418656   20.074987 C.3        1 MOL1        -0.2258
      15    H10     19.913297   19.850582   19.617873 H          1 MOL1         0.1036
      16    H11     21.569420   19.313529   19.286267 H          1 MOL1         0.1036
      17    H12     21.211661   20.127069   20.810498 H          1 MOL1         0.1036
@<TRIPOS>BOND
    1     1     2    1
    2     1     3    1
    3     1     4    1
    4     1     5    1
    5     5     6    1
    6     5     7    1
    7     5     8    1
    8     8     9    1
    9     8    10    1
   10     8    11    1
   11    11    12    1
   12    11    13    1
   13    11    14    1
   14    14    15    1
   15    14    16    1
   16    14    17    1
@<TRIPOS>SUBSTRUCTURE
       1 MOL1            1 RESIDUE      1      MOL     
@<SCITEGIC>MOL_PROPERTY
VConf Rank
SciTegic.value.IntegerValue
916

@<SCITEGIC>MOL_PROPERTY
Conf_Id
SciTegic.value.IntegerValue
44

@<SCITEGIC>MOL_PROPERTY
Delta U+W
SciTegic.value.DoubleValue
2.712

@<SCITEGIC>MOL_PROPERTY
U+W
SciTegic.value.DoubleValue
-13.153

@<SCITEGIC>MOL_PROPERTY
Grad RMS
SciTegic.value.DoubleValue
0.000000

@<SCITEGIC>MOL_PROPERTY
U
SciTegic.value.DoubleValue
47.423

@<SCITEGIC>MOL_PROPERTY
W
SciTegic.value.DoubleValue
-60.576

@<SCITEGIC>MOL_PROPERTY
W(PB)
SciTegic.value.DoubleValue
-62.262

@<SCITEGIC>MOL_PROPERTY
W(SA)
SciTegic.value.DoubleValue
1.687

@<SCITEGIC>MOL_PROPERTY
Valence
SciTegic.value.DoubleValue
2.414

@<SCITEGIC>MOL_PROPERTY
Coulomb
SciTegic.value.DoubleValue
44.831

@<SCITEGIC>MOL_PROPERTY
VdW
SciTegic.value.DoubleValue
0.178

@<SCITEGIC>MOL_PROPERTY
VdW6
SciTegic.value.DoubleValue
-3.743

@<SCITEGIC>MOL_PROPERTY
VdW12
SciTegic.value.DoubleValue
3.922

@<SCITEGIC>MOL_PROPERTY
Bond
SciTegic.value.DoubleValue
0.138

@<SCITEGIC>MOL_PROPERTY
Angle
SciTegic.value.DoubleValue
0.941

@<SCITEGIC>MOL_PROPERTY
Pdih
SciTegic.value.DoubleValue
1.335

@<SCITEGIC>MOL_PROPERTY
Idih
SciTegic.value.DoubleValue
0.000

@<SCITEGIC>MOL_PROPERTY
Tether
SciTegic.value.DoubleValue
0.000

@<TRIPOS>MOLECULE
guest-1_confgen4.mol2 : confsearch ligand conformer 917
          17          16           1
SMALL
USER_CHARGES
 
@<TRIPOS>ATOM
       1    N1      20.925215   19.884577   23.088243 N.4        1 MOL1        -0.5891
       2    H1      20.035768   20.384779   23.003806 H          1 MOL1         0.3726
       3    H2      21.658317   20.509366   22.739563 H          1 MOL1         0.3726
       4    H3      21.099462   19.750934   24.089465 H          1 MOL1         0.3726
       5    C1      20.901748   18.566295   22.338950 C.3        1 MOL1         0.0314
       6    H4      20.121232   17.939855   22.778463 H          1 MOL1         0.0999
       7    H5      21.863497   18.072756   22.503256 H          1 MOL1         0.0999
       8    C2      20.656802   18.715802   20.823177 C.3        1 MOL1        -0.1308
       9    H6      21.467561   19.312214   20.384187 H          1 MOL1         0.1025
      10    H7      20.720765   17.723408   20.357487 H          1 MOL1         0.1025
      11    C3      19.293777   19.359178   20.465703 C.3        1 MOL1        -0.1243
      12    H8      19.215449   19.437453   19.372249 H          1 MOL1         0.1025
      13    H9      19.250487   20.388450   20.846989 H          1 MOL1         0.1025
      14    C4      18.086131   18.555059   20.999355 C.3        1 MOL1        -0.2258
      15    H10     18.106419   17.521285   20.630619 H          1 MOL1         0.1036
      16    H11     17.143783   19.010110   20.667878 H          1 MOL1         0.1036
      17    H12     18.072229   18.527242   22.096160 H          1 MOL1         0.1036
@<TRIPOS>BOND
    1     1     2    1
    2     1     3    1
    3     1     4    1
    4     1     5    1
    5     5     6    1
    6     5     7    1
    7     5     8    1
    8     8     9    1
    9     8    10    1
   10     8    11    1
   11    11    12    1
   12    11    13    1
   13    11    14    1
   14    14    15    1
   15    14    16    1
   16    14    17    1
@<TRIPOS>SUBSTRUCTURE
       1 MOL1            1 RESIDUE      1      MOL     
@<SCITEGIC>MOL_PROPERTY
VConf Rank
SciTegic.value.IntegerValue
917

@<SCITEGIC>MOL_PROPERTY
Conf_Id
SciTegic.value.IntegerValue
1

@<SCITEGIC>MOL_PROPERTY
Delta U+W
SciTegic.value.DoubleValue
0.685

@<SCITEGIC>MOL_PROPERTY
U+W
SciTegic.value.DoubleValue
-15.179

@<SCITEGIC>MOL_PROPERTY
Grad RMS
SciTegic.value.DoubleValue
0.000000

@<SCITEGIC>MOL_PROPERTY
U
SciTegic.value.DoubleValue
45.697

@<SCITEGIC>MOL_PROPERTY
W
SciTegic.value.DoubleValue
-60.876

@<SCITEGIC>MOL_PROPERTY
W(PB)
SciTegic.value.DoubleValue
-62.586

@<SCITEGIC>MOL_PROPERTY
W(SA)
SciTegic.value.DoubleValue
1.710

@<SCITEGIC>MOL_PROPERTY
Valence
SciTegic.value.DoubleValue
1.263

@<SCITEGIC>MOL_PROPERTY
Coulomb
SciTegic.value.DoubleValue
44.179

@<SCITEGIC>MOL_PROPERTY
VdW
SciTegic.value.DoubleValue
0.255

@<SCITEGIC>MOL_PROPERTY
VdW6
SciTegic.value.DoubleValue
-3.552

@<SCITEGIC>MOL_PROPERTY
VdW12
SciTegic.value.DoubleValue
3.807

@<SCITEGIC>MOL_PROPERTY
Bond
SciTegic.value.DoubleValue
0.125

@<SCITEGIC>MOL_PROPERTY
Angle
SciTegic.value.DoubleValue
0.616

@<SCITEGIC>MOL_PROPERTY
Pdih
SciTegic.value.DoubleValue
0.521

@<SCITEGIC>MOL_PROPERTY
Idih
SciTegic.value.DoubleValue
0.000

@<SCITEGIC>MOL_PROPERTY
Tether
SciTegic.value.DoubleValue
0.000

@<TRIPOS>MOLECULE
guest-1_confgen4.mol2 : confsearch ligand conformer 918
          17          16           1
SMALL
USER_CHARGES
 
@<TRIPOS>ATOM
       1    N1      21.441820   17.747915   21.542840 N.4        1 MOL1        -0.5891
       2    H1      21.369755   17.115399   20.740277 H          1 MOL1         0.3726
       3    H2      20.787956   17.409655   22.254521 H          1 MOL1         0.3726
       4    H3      22.385770   17.635789   21.926316 H          1 MOL1         0.3726
       5    C1      21.157114   19.186572   21.156745 C.3        1 MOL1         0.0314
       6    H4      21.911735   19.490880   20.426346 H          1 MOL1         0.0999
       7    H5      21.279657   19.807784   22.047747 H          1 MOL1         0.0999
       8    C2      19.751400   19.404638   20.559808 C.3        1 MOL1        -0.1308
       9    H6      19.659385   20.454805   20.252424 H          1 MOL1         0.1025
      10    H7      19.652588   18.808137   19.643200 H          1 MOL1         0.1025
      11    C3      18.594356   19.054261   21.528336 C.3        1 MOL1        -0.1243
      12    H8      18.618223   17.983754   21.773488 H          1 MOL1         0.1025
      13    H9      17.638311   19.226242   21.014230 H          1 MOL1         0.1025
      14    C4      18.621317   19.887260   22.830328 C.3        1 MOL1        -0.2258
      15    H10     17.749666   19.653323   23.455201 H          1 MOL1         0.1036
      16    H11     18.597080   20.962672   22.611309 H          1 MOL1         0.1036
      17    H12     19.519854   19.678953   23.424625 H          1 MOL1         0.1036
@<TRIPOS>BOND
    1     1     2    1
    2     1     3    1
    3     1     4    1
    4     1     5    1
    5     5     6    1
    6     5     7    1
    7     5     8    1
    8     8     9    1
    9     8    10    1
   10     8    11    1
   11    11    12    1
   12    11    13    1
   13    11    14    1
   14    14    15    1
   15    14    16    1
   16    14    17    1
@<TRIPOS>SUBSTRUCTURE
       1 MOL1            1 RESIDUE      1      MOL     
@<SCITEGIC>MOL_PROPERTY
VConf Rank
SciTegic.value.IntegerValue
918

@<SCITEGIC>MOL_PROPERTY
Conf_Id
SciTegic.value.IntegerValue
43

@<SCITEGIC>MOL_PROPERTY
Delta U+W
SciTegic.value.DoubleValue
0.642

@<SCITEGIC>MOL_PROPERTY
U+W
SciTegic.value.DoubleValue
-15.222

@<SCITEGIC>MOL_PROPERTY
Grad RMS
SciTegic.value.DoubleValue
0.000000

@<SCITEGIC>MOL_PROPERTY
U
SciTegic.value.DoubleValue
45.697

@<SCITEGIC>MOL_PROPERTY
W
SciTegic.value.DoubleValue
-60.919

@<SCITEGIC>MOL_PROPERTY
W(PB)
SciTegic.value.DoubleValue
-62.631

@<SCITEGIC>MOL_PROPERTY
W(SA)
SciTegic.value.DoubleValue
1.712

@<SCITEGIC>MOL_PROPERTY
Valence
SciTegic.value.DoubleValue
1.262

@<SCITEGIC>MOL_PROPERTY
Coulomb
SciTegic.value.DoubleValue
44.179

@<SCITEGIC>MOL_PROPERTY
VdW
SciTegic.value.DoubleValue
0.255

@<SCITEGIC>MOL_PROPERTY
VdW6
SciTegic.value.DoubleValue
-3.552

@<SCITEGIC>MOL_PROPERTY
VdW12
SciTegic.value.DoubleValue
3.807

@<SCITEGIC>MOL_PROPERTY
Bond
SciTegic.value.DoubleValue
0.125

@<SCITEGIC>MOL_PROPERTY
Angle
SciTegic.value.DoubleValue
0.616

@<SCITEGIC>MOL_PROPERTY
Pdih
SciTegic.value.DoubleValue
0.521

@<SCITEGIC>MOL_PROPERTY
Idih
SciTegic.value.DoubleValue
0.000

@<SCITEGIC>MOL_PROPERTY
Tether
SciTegic.value.DoubleValue
0.000

@<TRIPOS>MOLECULE
guest-1_confgen4.mol2 : confsearch ligand conformer 919
          17          16           1
SMALL
USER_CHARGES
 
@<TRIPOS>ATOM
       1    N1      17.945707   20.533394   20.988209 N.4        1 MOL1        -0.5891
       2    H1      17.528010   19.905005   20.295134 H          1 MOL1         0.3726
       3    H2      18.460794   21.252102   20.470675 H          1 MOL1         0.3726
       4    H3      17.170834   21.008118   21.462674 H          1 MOL1         0.3726
       5    C1      18.834621   19.790509   21.965609 C.3        1 MOL1         0.0314
       6    H4      18.215588   19.065516   22.501059 H          1 MOL1         0.0999
       7    H5      19.218602   20.514077   22.689855 H          1 MOL1         0.0999
       8    C2      20.010226   19.065084   21.285923 C.3        1 MOL1        -0.1308
       9    H6      19.621241   18.350456   20.548368 H          1 MOL1         0.1025
      10    H7      20.620881   19.794043   20.736643 H          1 MOL1         0.1025
      11    C3      20.889422   18.321968   22.315639 C.3        1 MOL1        -0.1243
      12    H8      20.277983   17.594464   22.868094 H          1 MOL1         0.1025
      13    H9      21.276463   19.036287   23.056094 H          1 MOL1         0.1025
      14    C4      22.070829   17.591781   21.641059 C.3        1 MOL1        -0.2258
      15    H10     22.682573   17.070591   22.388842 H          1 MOL1         0.1036
      16    H11     22.720503   18.298705   21.108716 H          1 MOL1         0.1036
      17    H12     21.714130   16.845542   20.919186 H          1 MOL1         0.1036
@<TRIPOS>BOND
    1     1     2    1
    2     1     3    1
    3     1     4    1
    4     1     5    1
    5     5     6    1
    6     5     7    1
    7     5     8    1
    8     8     9    1
    9     8    10    1
   10     8    11    1
   11    11    12    1
   12    11    13    1
   13    11    14    1
   14    14    15    1
   15    14    16    1
   16    14    17    1
@<TRIPOS>SUBSTRUCTURE
       1 MOL1            1 RESIDUE      1      MOL     
@<SCITEGIC>MOL_PROPERTY
VConf Rank
SciTegic.value.IntegerValue
919

@<SCITEGIC>MOL_PROPERTY
Conf_Id
SciTegic.value.IntegerValue
7

@<SCITEGIC>MOL_PROPERTY
Delta U+W
SciTegic.value.DoubleValue
0.000

@<SCITEGIC>MOL_PROPERTY
U+W
SciTegic.value.DoubleValue
-15.865

@<SCITEGIC>MOL_PROPERTY
Grad RMS
SciTegic.value.DoubleValue
0.000000

@<SCITEGIC>MOL_PROPERTY
U
SciTegic.value.DoubleValue
44.664

@<SCITEGIC>MOL_PROPERTY
W
SciTegic.value.DoubleValue
-60.529

@<SCITEGIC>MOL_PROPERTY
W(PB)
SciTegic.value.DoubleValue
-62.309

@<SCITEGIC>MOL_PROPERTY
W(SA)
SciTegic.value.DoubleValue
1.780

@<SCITEGIC>MOL_PROPERTY
Valence
SciTegic.value.DoubleValue
0.872

@<SCITEGIC>MOL_PROPERTY
Coulomb
SciTegic.value.DoubleValue
43.648

@<SCITEGIC>MOL_PROPERTY
VdW
SciTegic.value.DoubleValue
0.144

@<SCITEGIC>MOL_PROPERTY
VdW6
SciTegic.value.DoubleValue
-2.370

@<SCITEGIC>MOL_PROPERTY
VdW12
SciTegic.value.DoubleValue
2.515

@<SCITEGIC>MOL_PROPERTY
Bond
SciTegic.value.DoubleValue
0.080

@<SCITEGIC>MOL_PROPERTY
Angle
SciTegic.value.DoubleValue
0.376

@<SCITEGIC>MOL_PROPERTY
Pdih
SciTegic.value.DoubleValue
0.416

@<SCITEGIC>MOL_PROPERTY
Idih
SciTegic.value.DoubleValue
0.000

@<SCITEGIC>MOL_PROPERTY
Tether
SciTegic.value.DoubleValue
0.000

@<TRIPOS>MOLECULE
guest-1_confgen4.mol2 : confsearch ligand conformer 920
          17          16           1
SMALL
USER_CHARGES
 
@<TRIPOS>ATOM
       1    N1      18.769506   17.389988   22.874649 N.4        1 MOL1        -0.5891
       2    H1      18.797509   16.514989   22.342445 H          1 MOL1         0.3726
       3    H2      17.821751   17.767956   22.782193 H          1 MOL1         0.3726
       4    H3      18.894302   17.140795   23.861144 H          1 MOL1         0.3726
       5    C1      19.821625   18.374523   22.404444 C.3        1 MOL1         0.0314
       6    H4      20.803596   17.919395   22.559365 H          1 MOL1         0.0999
       7    H5      19.753296   19.265331   23.034229 H          1 MOL1         0.0999
       8    C2      19.662939   18.771180   20.924093 C.3        1 MOL1        -0.1308
       9    H6      19.692875   17.865561   20.303741 H          1 MOL1         0.1025
      10    H7      18.676017   19.226770   20.768176 H          1 MOL1         0.1025
      11    C3      20.765121   19.745221   20.446135 C.3        1 MOL1        -0.1243
      12    H8      20.641466   19.923174   19.368626 H          1 MOL1         0.1025
      13    H9      21.752031   19.277562   20.570578 H          1 MOL1         0.1025
      14    C4      20.736040   21.101420   21.187643 C.3        1 MOL1        -0.2258
      15    H10     19.757216   21.587502   21.083939 H          1 MOL1         0.1036
      16    H11     21.492808   21.781605   20.775748 H          1 MOL1         0.1036
      17    H12     20.947282   20.980802   22.257652 H          1 MOL1         0.1036
@<TRIPOS>BOND
    1     1     2    1
    2     1     3    1
    3     1     4    1
    4     1     5    1
    5     5     6    1
    6     5     7    1
    7     5     8    1
    8     8     9    1
    9     8    10    1
   10     8    11    1
   11    11    12    1
   12    11    13    1
   13    11    14    1
   14    14    15    1
   15    14    16    1
   16    14    17    1
@<TRIPOS>SUBSTRUCTURE
       1 MOL1            1 RESIDUE      1      MOL     
@<SCITEGIC>MOL_PROPERTY
VConf Rank
SciTegic.value.IntegerValue
920

@<SCITEGIC>MOL_PROPERTY
Conf_Id
SciTegic.value.IntegerValue
36

@<SCITEGIC>MOL_PROPERTY
Delta U+W
SciTegic.value.DoubleValue
0.275

@<SCITEGIC>MOL_PROPERTY
U+W
SciTegic.value.DoubleValue
-15.590

@<SCITEGIC>MOL_PROPERTY
Grad RMS
SciTegic.value.DoubleValue
0.000000

@<SCITEGIC>MOL_PROPERTY
U
SciTegic.value.DoubleValue
45.174

@<SCITEGIC>MOL_PROPERTY
W
SciTegic.value.DoubleValue
-60.765

@<SCITEGIC>MOL_PROPERTY
W(PB)
SciTegic.value.DoubleValue
-62.518

@<SCITEGIC>MOL_PROPERTY
W(SA)
SciTegic.value.DoubleValue
1.754

@<SCITEGIC>MOL_PROPERTY
Valence
SciTegic.value.DoubleValue
1.161

@<SCITEGIC>MOL_PROPERTY
Coulomb
SciTegic.value.DoubleValue
43.789

@<SCITEGIC>MOL_PROPERTY
VdW
SciTegic.value.DoubleValue
0.224

@<SCITEGIC>MOL_PROPERTY
VdW6
SciTegic.value.DoubleValue
-2.897

@<SCITEGIC>MOL_PROPERTY
VdW12
SciTegic.value.DoubleValue
3.121

@<SCITEGIC>MOL_PROPERTY
Bond
SciTegic.value.DoubleValue
0.100

@<SCITEGIC>MOL_PROPERTY
Angle
SciTegic.value.DoubleValue
0.500

@<SCITEGIC>MOL_PROPERTY
Pdih
SciTegic.value.DoubleValue
0.561

@<SCITEGIC>MOL_PROPERTY
Idih
SciTegic.value.DoubleValue
0.000

@<SCITEGIC>MOL_PROPERTY
Tether
SciTegic.value.DoubleValue
0.000

@<TRIPOS>MOLECULE
guest-1_confgen4.mol2 : confsearch ligand conformer 921
          17          16           1
SMALL
USER_CHARGES
 
@<TRIPOS>ATOM
       1    N1      21.255517   18.447682   20.406033 N.4        1 MOL1        -0.5891
       2    H1      21.657359   18.699562   21.312634 H          1 MOL1         0.3726
       3    H2      21.409446   19.241619   19.777185 H          1 MOL1         0.3726
       4    H3      21.806454   17.665608   20.037725 H          1 MOL1         0.3726
       5    C1      19.784565   18.096800   20.520971 C.3        1 MOL1         0.0314
       6    H4      19.687193   17.205222   21.146199 H          1 MOL1         0.0999
       7    H5      19.436598   17.844075   19.515692 H          1 MOL1         0.0999
       8    C2      18.904229   19.230700   21.087445 C.3        1 MOL1        -0.1308
       9    H6      19.180292   20.187424   20.624632 H          1 MOL1         0.1025
      10    H7      17.868161   19.035486   20.780361 H          1 MOL1         0.1025
      11    C3      18.928405   19.352358   22.632541 C.3        1 MOL1        -0.1243
      12    H8      18.589589   18.408753   23.082914 H          1 MOL1         0.1025
      13    H9      18.193188   20.112748   22.931291 H          1 MOL1         0.1025
      14    C4      20.303886   19.739532   23.221633 C.3        1 MOL1        -0.2258
      15    H10     21.024999   18.918662   23.133056 H          1 MOL1         0.1036
      16    H11     20.208573   19.970654   24.290583 H          1 MOL1         0.1036
      17    H12     20.714745   20.627829   22.724365 H          1 MOL1         0.1036
@<TRIPOS>BOND
    1     1     2    1
    2     1     3    1
    3     1     4    1
    4     1     5    1
    5     5     6    1
    6     5     7    1
    7     5     8    1
    8     8     9    1
    9     8    10    1
   10     8    11    1
   11    11    12    1
   12    11    13    1
   13    11    14    1
   14    14    15    1
   15    14    16    1
   16    14    17    1
@<TRIPOS>SUBSTRUCTURE
       1 MOL1            1 RESIDUE      1      MOL     
@<SCITEGIC>MOL_PROPERTY
VConf Rank
SciTegic.value.IntegerValue
921

@<SCITEGIC>MOL_PROPERTY
Conf_Id
SciTegic.value.IntegerValue
19

@<SCITEGIC>MOL_PROPERTY
Delta U+W
SciTegic.value.DoubleValue
2.662

@<SCITEGIC>MOL_PROPERTY
U+W
SciTegic.value.DoubleValue
-13.203

@<SCITEGIC>MOL_PROPERTY
Grad RMS
SciTegic.value.DoubleValue
0.000000

@<SCITEGIC>MOL_PROPERTY
U
SciTegic.value.DoubleValue
47.423

@<SCITEGIC>MOL_PROPERTY
W
SciTegic.value.DoubleValue
-60.626

@<SCITEGIC>MOL_PROPERTY
W(PB)
SciTegic.value.DoubleValue
-62.328

@<SCITEGIC>MOL_PROPERTY
W(SA)
SciTegic.value.DoubleValue
1.702

@<SCITEGIC>MOL_PROPERTY
Valence
SciTegic.value.DoubleValue
2.414

@<SCITEGIC>MOL_PROPERTY
Coulomb
SciTegic.value.DoubleValue
44.831

@<SCITEGIC>MOL_PROPERTY
VdW
SciTegic.value.DoubleValue
0.178

@<SCITEGIC>MOL_PROPERTY
VdW6
SciTegic.value.DoubleValue
-3.743

@<SCITEGIC>MOL_PROPERTY
VdW12
SciTegic.value.DoubleValue
3.921

@<SCITEGIC>MOL_PROPERTY
Bond
SciTegic.value.DoubleValue
0.138

@<SCITEGIC>MOL_PROPERTY
Angle
SciTegic.value.DoubleValue
0.941

@<SCITEGIC>MOL_PROPERTY
Pdih
SciTegic.value.DoubleValue
1.335

@<SCITEGIC>MOL_PROPERTY
Idih
SciTegic.value.DoubleValue
0.000

@<SCITEGIC>MOL_PROPERTY
Tether
SciTegic.value.DoubleValue
0.000

@<TRIPOS>MOLECULE
guest-1_confgen4.mol2 : confsearch ligand conformer 922
          17          16           1
SMALL
USER_CHARGES
 
@<TRIPOS>ATOM
       1    N1      18.937447   20.039141   22.869252 N.4        1 MOL1        -0.5891
       2    H1      18.086990   20.572061   23.077922 H          1 MOL1         0.3726
       3    H2      19.592591   20.212434   23.637521 H          1 MOL1         0.3726
       4    H3      18.688441   19.047360   22.904039 H          1 MOL1         0.3726
       5    C1      19.528950   20.423570   21.526726 C.3        1 MOL1         0.0314
       6    H4      19.766774   21.489681   21.575539 H          1 MOL1         0.0999
       7    H5      18.765601   20.282684   20.756823 H          1 MOL1         0.0999
       8    C2      20.803837   19.640903   21.147639 C.3        1 MOL1        -0.1308
       9    H6      21.346098   20.228465   20.394931 H          1 MOL1         0.1025
      10    H7      21.473584   19.571166   22.014994 H          1 MOL1         0.1025
      11    C3      20.541235   18.233027   20.554655 C.3        1 MOL1        -0.1243
      12    H8      21.501387   17.811844   20.224952 H          1 MOL1         0.1025
      13    H9      19.922294   18.322272   19.650792 H          1 MOL1         0.1025
      14    C4      19.879119   17.239523   21.536200 C.3        1 MOL1        -0.2258
      15    H10     20.422541   17.198720   22.489185 H          1 MOL1         0.1036
      16    H11     19.877683   16.227729   21.110259 H          1 MOL1         0.1036
      17    H12     18.834640   17.506267   21.735174 H          1 MOL1         0.1036
@<TRIPOS>BOND
    1     1     2    1
    2     1     3    1
    3     1     4    1
    4     1     5    1
    5     5     6    1
    6     5     7    1
    7     5     8    1
    8     8     9    1
    9     8    10    1
   10     8    11    1
   11    11    12    1
   12    11    13    1
   13    11    14    1
   14    14    15    1
   15    14    16    1
   16    14    17    1
@<TRIPOS>SUBSTRUCTURE
       1 MOL1            1 RESIDUE      1      MOL     
@<SCITEGIC>MOL_PROPERTY
VConf Rank
SciTegic.value.IntegerValue
922

@<SCITEGIC>MOL_PROPERTY
Conf_Id
SciTegic.value.IntegerValue
44

@<SCITEGIC>MOL_PROPERTY
Delta U+W
SciTegic.value.DoubleValue
2.712

@<SCITEGIC>MOL_PROPERTY
U+W
SciTegic.value.DoubleValue
-13.153

@<SCITEGIC>MOL_PROPERTY
Grad RMS
SciTegic.value.DoubleValue
0.000000

@<SCITEGIC>MOL_PROPERTY
U
SciTegic.value.DoubleValue
47.423

@<SCITEGIC>MOL_PROPERTY
W
SciTegic.value.DoubleValue
-60.576

@<SCITEGIC>MOL_PROPERTY
W(PB)
SciTegic.value.DoubleValue
-62.262

@<SCITEGIC>MOL_PROPERTY
W(SA)
SciTegic.value.DoubleValue
1.687

@<SCITEGIC>MOL_PROPERTY
Valence
SciTegic.value.DoubleValue
2.414

@<SCITEGIC>MOL_PROPERTY
Coulomb
SciTegic.value.DoubleValue
44.831

@<SCITEGIC>MOL_PROPERTY
VdW
SciTegic.value.DoubleValue
0.178

@<SCITEGIC>MOL_PROPERTY
VdW6
SciTegic.value.DoubleValue
-3.743

@<SCITEGIC>MOL_PROPERTY
VdW12
SciTegic.value.DoubleValue
3.922

@<SCITEGIC>MOL_PROPERTY
Bond
SciTegic.value.DoubleValue
0.138

@<SCITEGIC>MOL_PROPERTY
Angle
SciTegic.value.DoubleValue
0.941

@<SCITEGIC>MOL_PROPERTY
Pdih
SciTegic.value.DoubleValue
1.335

@<SCITEGIC>MOL_PROPERTY
Idih
SciTegic.value.DoubleValue
0.000

@<SCITEGIC>MOL_PROPERTY
Tether
SciTegic.value.DoubleValue
0.000

@<TRIPOS>MOLECULE
guest-1_confgen4.mol2 : confsearch ligand conformer 923
          17          16           1
SMALL
USER_CHARGES
 
@<TRIPOS>ATOM
       1    N1      18.302592   19.836676   22.434119 N.4        1 MOL1        -0.5891
       2    H1      18.156379   18.823707   22.403122 H          1 MOL1         0.3726
       3    H2      17.683632   20.253614   21.732386 H          1 MOL1         0.3726
       4    H3      17.973623   20.158584   23.349992 H          1 MOL1         0.3726
       5    C1      19.755037   20.202213   22.196121 C.3        1 MOL1         0.0314
       6    H4      20.353268   19.752123   22.992578 H          1 MOL1         0.0999
       7    H5      19.843039   21.288807   22.280426 H          1 MOL1         0.0999
       8    C2      20.293702   19.751237   20.822665 C.3        1 MOL1        -0.1308
       9    H6      19.712728   20.240162   20.029462 H          1 MOL1         0.1025
      10    H7      21.324696   20.113144   20.713673 H          1 MOL1         0.1025
      11    C3      20.267097   18.217328   20.608255 C.3        1 MOL1        -0.1243
      12    H8      20.653082   17.993776   19.603792 H          1 MOL1         0.1025
      13    H9      19.231287   17.851905   20.623034 H          1 MOL1         0.1025
      14    C4      21.106448   17.445407   21.652011 C.3        1 MOL1        -0.2258
      15    H10     22.147871   17.792527   21.655682 H          1 MOL1         0.1036
      16    H11     21.112410   16.371770   21.423460 H          1 MOL1         0.1036
      17    H12     20.701752   17.565785   22.664770 H          1 MOL1         0.1036
@<TRIPOS>BOND
    1     1     2    1
    2     1     3    1
    3     1     4    1
    4     1     5    1
    5     5     6    1
    6     5     7    1
    7     5     8    1
    8     8     9    1
    9     8    10    1
   10     8    11    1
   11    11    12    1
   12    11    13    1
   13    11    14    1
   14    14    15    1
   15    14    16    1
   16    14    17    1
@<TRIPOS>SUBSTRUCTURE
       1 MOL1            1 RESIDUE      1      MOL     
@<SCITEGIC>MOL_PROPERTY
VConf Rank
SciTegic.value.IntegerValue
923

@<SCITEGIC>MOL_PROPERTY
Conf_Id
SciTegic.value.IntegerValue
1

@<SCITEGIC>MOL_PROPERTY
Delta U+W
SciTegic.value.DoubleValue
0.685

@<SCITEGIC>MOL_PROPERTY
U+W
SciTegic.value.DoubleValue
-15.179

@<SCITEGIC>MOL_PROPERTY
Grad RMS
SciTegic.value.DoubleValue
0.000000

@<SCITEGIC>MOL_PROPERTY
U
SciTegic.value.DoubleValue
45.697

@<SCITEGIC>MOL_PROPERTY
W
SciTegic.value.DoubleValue
-60.876

@<SCITEGIC>MOL_PROPERTY
W(PB)
SciTegic.value.DoubleValue
-62.586

@<SCITEGIC>MOL_PROPERTY
W(SA)
SciTegic.value.DoubleValue
1.710

@<SCITEGIC>MOL_PROPERTY
Valence
SciTegic.value.DoubleValue
1.263

@<SCITEGIC>MOL_PROPERTY
Coulomb
SciTegic.value.DoubleValue
44.179

@<SCITEGIC>MOL_PROPERTY
VdW
SciTegic.value.DoubleValue
0.255

@<SCITEGIC>MOL_PROPERTY
VdW6
SciTegic.value.DoubleValue
-3.552

@<SCITEGIC>MOL_PROPERTY
VdW12
SciTegic.value.DoubleValue
3.807

@<SCITEGIC>MOL_PROPERTY
Bond
SciTegic.value.DoubleValue
0.125

@<SCITEGIC>MOL_PROPERTY
Angle
SciTegic.value.DoubleValue
0.616

@<SCITEGIC>MOL_PROPERTY
Pdih
SciTegic.value.DoubleValue
0.521

@<SCITEGIC>MOL_PROPERTY
Idih
SciTegic.value.DoubleValue
0.000

@<SCITEGIC>MOL_PROPERTY
Tether
SciTegic.value.DoubleValue
0.000

@<TRIPOS>MOLECULE
guest-1_confgen4.mol2 : confsearch ligand conformer 924
          17          16           1
SMALL
USER_CHARGES
 
@<TRIPOS>ATOM
       1    N1      21.859229   19.456464   21.756447 N.4        1 MOL1        -0.5891
       2    H1      22.097453   19.780428   22.698611 H          1 MOL1         0.3726
       3    H2      21.416527   20.240917   21.269520 H          1 MOL1         0.3726
       4    H3      22.743721   19.266036   21.274701 H          1 MOL1         0.3726
       5    C1      20.960168   18.235593   21.788399 C.3        1 MOL1         0.0314
       6    H4      21.508401   17.431305   22.286495 H          1 MOL1         0.0999
       7    H5      20.770347   17.926715   20.757202 H          1 MOL1         0.0999
       8    C2      19.620310   18.467789   22.516949 C.3        1 MOL1        -0.1308
       9    H6      19.067694   17.519350   22.546652 H          1 MOL1         0.1025
      10    H7      19.820551   18.737681   23.562325 H          1 MOL1         0.1025
      11    C3      18.729888   19.555835   21.866670 C.3        1 MOL1        -0.1243
      12    H8      19.232213   20.531671   21.912141 H          1 MOL1         0.1025
      13    H9      17.809967   19.660581   22.458850 H          1 MOL1         0.1025
      14    C4      18.350919   19.233050   20.403116 C.3        1 MOL1        -0.2258
      15    H10     17.668515   19.995172   20.005041 H          1 MOL1         0.1036
      16    H11     17.845536   18.261181   20.331528 H          1 MOL1         0.1036
      17    H12     19.234549   19.208271   19.753092 H          1 MOL1         0.1036
@<TRIPOS>BOND
    1     1     2    1
    2     1     3    1
    3     1     4    1
    4     1     5    1
    5     5     6    1
    6     5     7    1
    7     5     8    1
    8     8     9    1
    9     8    10    1
   10     8    11    1
   11    11    12    1
   12    11    13    1
   13    11    14    1
   14    14    15    1
   15    14    16    1
   16    14    17    1
@<TRIPOS>SUBSTRUCTURE
       1 MOL1            1 RESIDUE      1      MOL     
@<SCITEGIC>MOL_PROPERTY
VConf Rank
SciTegic.value.IntegerValue
924

@<SCITEGIC>MOL_PROPERTY
Conf_Id
SciTegic.value.IntegerValue
43

@<SCITEGIC>MOL_PROPERTY
Delta U+W
SciTegic.value.DoubleValue
0.642

@<SCITEGIC>MOL_PROPERTY
U+W
SciTegic.value.DoubleValue
-15.222

@<SCITEGIC>MOL_PROPERTY
Grad RMS
SciTegic.value.DoubleValue
0.000000

@<SCITEGIC>MOL_PROPERTY
U
SciTegic.value.DoubleValue
45.697

@<SCITEGIC>MOL_PROPERTY
W
SciTegic.value.DoubleValue
-60.919

@<SCITEGIC>MOL_PROPERTY
W(PB)
SciTegic.value.DoubleValue
-62.631

@<SCITEGIC>MOL_PROPERTY
W(SA)
SciTegic.value.DoubleValue
1.712

@<SCITEGIC>MOL_PROPERTY
Valence
SciTegic.value.DoubleValue
1.262

@<SCITEGIC>MOL_PROPERTY
Coulomb
SciTegic.value.DoubleValue
44.179

@<SCITEGIC>MOL_PROPERTY
VdW
SciTegic.value.DoubleValue
0.255

@<SCITEGIC>MOL_PROPERTY
VdW6
SciTegic.value.DoubleValue
-3.552

@<SCITEGIC>MOL_PROPERTY
VdW12
SciTegic.value.DoubleValue
3.807

@<SCITEGIC>MOL_PROPERTY
Bond
SciTegic.value.DoubleValue
0.125

@<SCITEGIC>MOL_PROPERTY
Angle
SciTegic.value.DoubleValue
0.616

@<SCITEGIC>MOL_PROPERTY
Pdih
SciTegic.value.DoubleValue
0.521

@<SCITEGIC>MOL_PROPERTY
Idih
SciTegic.value.DoubleValue
0.000

@<SCITEGIC>MOL_PROPERTY
Tether
SciTegic.value.DoubleValue
0.000

@<TRIPOS>MOLECULE
guest-1_confgen4.mol2 : confsearch ligand conformer 925
          17          16           1
SMALL
USER_CHARGES
 
@<TRIPOS>ATOM
       1    N1      18.735582   19.291459   23.848452 N.4        1 MOL1        -0.5891
       2    H1      19.210262   18.525862   24.336547 H          1 MOL1         0.3726
       3    H2      17.825526   18.934263   23.542011 H          1 MOL1         0.3726
       4    H3      18.548663   20.017631   24.547484 H          1 MOL1         0.3726
       5    C1      19.556678   19.822185   22.690226 C.3        1 MOL1         0.0314
       6    H4      20.495270   20.212707   23.092794 H          1 MOL1         0.0999
       7    H5      19.006249   20.651906   22.238434 H          1 MOL1         0.0999
       8    C2      19.856236   18.756466   21.620287 C.3        1 MOL1        -0.1308
       9    H6      20.395391   17.917899   22.080838 H          1 MOL1         0.1025
      10    H7      18.911506   18.355696   21.229315 H          1 MOL1         0.1025
      11    C3      20.693607   19.337809   20.459955 C.3        1 MOL1        -0.1243
      12    H8      21.637968   19.742132   20.851148 H          1 MOL1         0.1025
      13    H9      20.155873   20.179340   20.000616 H          1 MOL1         0.1025
      14    C4      20.998092   18.274388   19.382745 C.3        1 MOL1        -0.2258
      15    H10     21.593264   18.706929   18.568050 H          1 MOL1         0.1036
      16    H11     20.072248   17.875831   18.947805 H          1 MOL1         0.1036
      17    H12     21.565992   17.435142   19.805075 H          1 MOL1         0.1036
@<TRIPOS>BOND
    1     1     2    1
    2     1     3    1
    3     1     4    1
    4     1     5    1
    5     5     6    1
    6     5     7    1
    7     5     8    1
    8     8     9    1
    9     8    10    1
   10     8    11    1
   11    11    12    1
   12    11    13    1
   13    11    14    1
   14    14    15    1
   15    14    16    1
   16    14    17    1
@<TRIPOS>SUBSTRUCTURE
       1 MOL1            1 RESIDUE      1      MOL     
@<SCITEGIC>MOL_PROPERTY
VConf Rank
SciTegic.value.IntegerValue
925

@<SCITEGIC>MOL_PROPERTY
Conf_Id
SciTegic.value.IntegerValue
7

@<SCITEGIC>MOL_PROPERTY
Delta U+W
SciTegic.value.DoubleValue
0.000

@<SCITEGIC>MOL_PROPERTY
U+W
SciTegic.value.DoubleValue
-15.865

@<SCITEGIC>MOL_PROPERTY
Grad RMS
SciTegic.value.DoubleValue
0.000000

@<SCITEGIC>MOL_PROPERTY
U
SciTegic.value.DoubleValue
44.664

@<SCITEGIC>MOL_PROPERTY
W
SciTegic.value.DoubleValue
-60.529

@<SCITEGIC>MOL_PROPERTY
W(PB)
SciTegic.value.DoubleValue
-62.309

@<SCITEGIC>MOL_PROPERTY
W(SA)
SciTegic.value.DoubleValue
1.780

@<SCITEGIC>MOL_PROPERTY
Valence
SciTegic.value.DoubleValue
0.872

@<SCITEGIC>MOL_PROPERTY
Coulomb
SciTegic.value.DoubleValue
43.648

@<SCITEGIC>MOL_PROPERTY
VdW
SciTegic.value.DoubleValue
0.144

@<SCITEGIC>MOL_PROPERTY
VdW6
SciTegic.value.DoubleValue
-2.370

@<SCITEGIC>MOL_PROPERTY
VdW12
SciTegic.value.DoubleValue
2.515

@<SCITEGIC>MOL_PROPERTY
Bond
SciTegic.value.DoubleValue
0.080

@<SCITEGIC>MOL_PROPERTY
Angle
SciTegic.value.DoubleValue
0.376

@<SCITEGIC>MOL_PROPERTY
Pdih
SciTegic.value.DoubleValue
0.416

@<SCITEGIC>MOL_PROPERTY
Idih
SciTegic.value.DoubleValue
0.000

@<SCITEGIC>MOL_PROPERTY
Tether
SciTegic.value.DoubleValue
0.000

@<TRIPOS>MOLECULE
guest-1_confgen4.mol2 : confsearch ligand conformer 926
          17          16           1
SMALL
USER_CHARGES
 
@<TRIPOS>ATOM
       1    N1      18.858609   17.958927   23.461397 N.4        1 MOL1        -0.5891
       2    H1      18.786241   18.607937   24.250825 H          1 MOL1         0.3726
       3    H2      19.615102   17.303338   23.679496 H          1 MOL1         0.3726
       4    H3      17.990159   17.414530   23.444921 H          1 MOL1         0.3726
       5    C1      19.095071   18.682899   22.150937 C.3        1 MOL1         0.0314
       6    H4      18.239670   19.338847   21.968101 H          1 MOL1         0.0999
       7    H5      19.129468   17.934308   21.355156 H          1 MOL1         0.0999
       8    C2      20.393936   19.511643   22.141388 C.3        1 MOL1        -0.1308
       9    H6      20.366483   20.233128   22.968783 H          1 MOL1         0.1025
      10    H7      21.252910   18.853072   22.326691 H          1 MOL1         0.1025
      11    C3      20.603751   20.276421   20.813571 C.3        1 MOL1        -0.1243
      12    H8      21.499813   20.906632   20.902388 H          1 MOL1         0.1025
      13    H9      19.760641   20.960746   20.643144 H          1 MOL1         0.1025
      14    C4      20.765735   19.338664   19.595240 C.3        1 MOL1        -0.2258
      15    H10     21.599129   18.639526   19.742840 H          1 MOL1         0.1036
      16    H11     20.973080   19.919636   18.687228 H          1 MOL1         0.1036
      17    H12     19.855584   18.753521   19.412693 H          1 MOL1         0.1036
@<TRIPOS>BOND
    1     1     2    1
    2     1     3    1
    3     1     4    1
    4     1     5    1
    5     5     6    1
    6     5     7    1
    7     5     8    1
    8     8     9    1
    9     8    10    1
   10     8    11    1
   11    11    12    1
   12    11    13    1
   13    11    14    1
   14    14    15    1
   15    14    16    1
   16    14    17    1
@<TRIPOS>SUBSTRUCTURE
       1 MOL1            1 RESIDUE      1      MOL     
@<SCITEGIC>MOL_PROPERTY
VConf Rank
SciTegic.value.IntegerValue
926

@<SCITEGIC>MOL_PROPERTY
Conf_Id
SciTegic.value.IntegerValue
36

@<SCITEGIC>MOL_PROPERTY
Delta U+W
SciTegic.value.DoubleValue
0.275

@<SCITEGIC>MOL_PROPERTY
U+W
SciTegic.value.DoubleValue
-15.590

@<SCITEGIC>MOL_PROPERTY
Grad RMS
SciTegic.value.DoubleValue
0.000000

@<SCITEGIC>MOL_PROPERTY
U
SciTegic.value.DoubleValue
45.174

@<SCITEGIC>MOL_PROPERTY
W
SciTegic.value.DoubleValue
-60.765

@<SCITEGIC>MOL_PROPERTY
W(PB)
SciTegic.value.DoubleValue
-62.518

@<SCITEGIC>MOL_PROPERTY
W(SA)
SciTegic.value.DoubleValue
1.754

@<SCITEGIC>MOL_PROPERTY
Valence
SciTegic.value.DoubleValue
1.161

@<SCITEGIC>MOL_PROPERTY
Coulomb
SciTegic.value.DoubleValue
43.789

@<SCITEGIC>MOL_PROPERTY
VdW
SciTegic.value.DoubleValue
0.224

@<SCITEGIC>MOL_PROPERTY
VdW6
SciTegic.value.DoubleValue
-2.897

@<SCITEGIC>MOL_PROPERTY
VdW12
SciTegic.value.DoubleValue
3.121

@<SCITEGIC>MOL_PROPERTY
Bond
SciTegic.value.DoubleValue
0.100

@<SCITEGIC>MOL_PROPERTY
Angle
SciTegic.value.DoubleValue
0.500

@<SCITEGIC>MOL_PROPERTY
Pdih
SciTegic.value.DoubleValue
0.561

@<SCITEGIC>MOL_PROPERTY
Idih
SciTegic.value.DoubleValue
0.000

@<SCITEGIC>MOL_PROPERTY
Tether
SciTegic.value.DoubleValue
0.000

@<TRIPOS>MOLECULE
guest-1_confgen4.mol2 : confsearch ligand conformer 927
          17          16           1
SMALL
USER_CHARGES
 
@<TRIPOS>ATOM
       1    N1      21.631271   18.234875   21.449367 N.4        1 MOL1        -0.5891
       2    H1      21.125218   17.851759   22.251850 H          1 MOL1         0.3726
       3    H2      22.285669   18.934699   21.811981 H          1 MOL1         0.3726
       4    H3      22.196208   17.474772   21.057051 H          1 MOL1         0.3726
       5    C1      20.687678   18.825888   20.419626 C.3        1 MOL1         0.0314
       6    H4      20.062002   18.023450   20.019720 H          1 MOL1         0.0999
       7    H5      21.305343   19.211126   19.603772 H          1 MOL1         0.0999
       8    C2      19.795961   19.965355   20.956346 C.3        1 MOL1        -0.1308
       9    H6      20.392213   20.649434   21.574607 H          1 MOL1         0.1025
      10    H7      19.454557   20.556770   20.096394 H          1 MOL1         0.1025
      11    C3      18.542957   19.488762   21.734514 C.3        1 MOL1        -0.1243
      12    H8      17.922494   18.856182   21.084214 H          1 MOL1         0.1025
      13    H9      17.930423   20.368706   21.976363 H          1 MOL1         0.1025
      14    C4      18.854552   18.730813   23.044974 C.3        1 MOL1        -0.2258
      15    H10     19.282084   17.741307   22.845552 H          1 MOL1         0.1036
      16    H11     17.933810   18.573630   23.621761 H          1 MOL1         0.1036
      17    H12     19.550758   19.297188   23.677168 H          1 MOL1         0.1036
@<TRIPOS>BOND
    1     1     2    1
    2     1     3    1
    3     1     4    1
    4     1     5    1
    5     5     6    1
    6     5     7    1
    7     5     8    1
    8     8     9    1
    9     8    10    1
   10     8    11    1
   11    11    12    1
   12    11    13    1
   13    11    14    1
   14    14    15    1
   15    14    16    1
   16    14    17    1
@<TRIPOS>SUBSTRUCTURE
       1 MOL1            1 RESIDUE      1      MOL     
@<SCITEGIC>MOL_PROPERTY
VConf Rank
SciTegic.value.IntegerValue
927

@<SCITEGIC>MOL_PROPERTY
Conf_Id
SciTegic.value.IntegerValue
19

@<SCITEGIC>MOL_PROPERTY
Delta U+W
SciTegic.value.DoubleValue
2.662

@<SCITEGIC>MOL_PROPERTY
U+W
SciTegic.value.DoubleValue
-13.203

@<SCITEGIC>MOL_PROPERTY
Grad RMS
SciTegic.value.DoubleValue
0.000000

@<SCITEGIC>MOL_PROPERTY
U
SciTegic.value.DoubleValue
47.423

@<SCITEGIC>MOL_PROPERTY
W
SciTegic.value.DoubleValue
-60.626

@<SCITEGIC>MOL_PROPERTY
W(PB)
SciTegic.value.DoubleValue
-62.328

@<SCITEGIC>MOL_PROPERTY
W(SA)
SciTegic.value.DoubleValue
1.702

@<SCITEGIC>MOL_PROPERTY
Valence
SciTegic.value.DoubleValue
2.414

@<SCITEGIC>MOL_PROPERTY
Coulomb
SciTegic.value.DoubleValue
44.831

@<SCITEGIC>MOL_PROPERTY
VdW
SciTegic.value.DoubleValue
0.178

@<SCITEGIC>MOL_PROPERTY
VdW6
SciTegic.value.DoubleValue
-3.743

@<SCITEGIC>MOL_PROPERTY
VdW12
SciTegic.value.DoubleValue
3.921

@<SCITEGIC>MOL_PROPERTY
Bond
SciTegic.value.DoubleValue
0.138

@<SCITEGIC>MOL_PROPERTY
Angle
SciTegic.value.DoubleValue
0.941

@<SCITEGIC>MOL_PROPERTY
Pdih
SciTegic.value.DoubleValue
1.335

@<SCITEGIC>MOL_PROPERTY
Idih
SciTegic.value.DoubleValue
0.000

@<SCITEGIC>MOL_PROPERTY
Tether
SciTegic.value.DoubleValue
0.000

@<TRIPOS>MOLECULE
guest-1_confgen4.mol2 : confsearch ligand conformer 928
          17          16           1
SMALL
USER_CHARGES
 
@<TRIPOS>ATOM
       1    N1      21.441079   19.223185   22.597222 N.4        1 MOL1        -0.5891
       2    H1      22.344187   19.697296   22.699389 H          1 MOL1         0.3726
       3    H2      21.448625   18.427504   23.242446 H          1 MOL1         0.3726
       4    H3      20.720978   19.871026   22.926765 H          1 MOL1         0.3726
       5    C1      21.192003   18.786147   21.166488 C.3        1 MOL1         0.0314
       6    H4      21.999264   18.099825   20.896622 H          1 MOL1         0.0999
       7    H5      21.262947   19.662976   20.517305 H          1 MOL1         0.0999
       8    C2      19.837356   18.080722   20.945311 C.3        1 MOL1        -0.1308
       9    H6      19.915223   17.487239   20.024681 H          1 MOL1         0.1025
      10    H7      19.652677   17.360380   21.753228 H          1 MOL1         0.1025
      11    C3      18.630076   19.040861   20.792628 C.3        1 MOL1        -0.1243
      12    H8      17.743554   18.443969   20.536132 H          1 MOL1         0.1025
      13    H9      18.799267   19.714834   19.941067 H          1 MOL1         0.1025
      14    C4      18.313412   19.875064   22.054653 C.3        1 MOL1        -0.2258
      15    H10     18.232134   19.236968   22.944248 H          1 MOL1         0.1036
      16    H11     17.357175   20.400484   21.933403 H          1 MOL1         0.1036
      17    H12     19.079255   20.638368   22.235014 H          1 MOL1         0.1036
@<TRIPOS>BOND
    1     1     2    1
    2     1     3    1
    3     1     4    1
    4     1     5    1
    5     5     6    1
    6     5     7    1
    7     5     8    1
    8     8     9    1
    9     8    10    1
   10     8    11    1
   11    11    12    1
   12    11    13    1
   13    11    14    1
   14    14    15    1
   15    14    16    1
   16    14    17    1
@<TRIPOS>SUBSTRUCTURE
       1 MOL1            1 RESIDUE      1      MOL     
@<SCITEGIC>MOL_PROPERTY
VConf Rank
SciTegic.value.IntegerValue
928

@<SCITEGIC>MOL_PROPERTY
Conf_Id
SciTegic.value.IntegerValue
44

@<SCITEGIC>MOL_PROPERTY
Delta U+W
SciTegic.value.DoubleValue
2.712

@<SCITEGIC>MOL_PROPERTY
U+W
SciTegic.value.DoubleValue
-13.153

@<SCITEGIC>MOL_PROPERTY
Grad RMS
SciTegic.value.DoubleValue
0.000000

@<SCITEGIC>MOL_PROPERTY
U
SciTegic.value.DoubleValue
47.423

@<SCITEGIC>MOL_PROPERTY
W
SciTegic.value.DoubleValue
-60.576

@<SCITEGIC>MOL_PROPERTY
W(PB)
SciTegic.value.DoubleValue
-62.262

@<SCITEGIC>MOL_PROPERTY
W(SA)
SciTegic.value.DoubleValue
1.687

@<SCITEGIC>MOL_PROPERTY
Valence
SciTegic.value.DoubleValue
2.414

@<SCITEGIC>MOL_PROPERTY
Coulomb
SciTegic.value.DoubleValue
44.831

@<SCITEGIC>MOL_PROPERTY
VdW
SciTegic.value.DoubleValue
0.178

@<SCITEGIC>MOL_PROPERTY
VdW6
SciTegic.value.DoubleValue
-3.743

@<SCITEGIC>MOL_PROPERTY
VdW12
SciTegic.value.DoubleValue
3.922

@<SCITEGIC>MOL_PROPERTY
Bond
SciTegic.value.DoubleValue
0.138

@<SCITEGIC>MOL_PROPERTY
Angle
SciTegic.value.DoubleValue
0.941

@<SCITEGIC>MOL_PROPERTY
Pdih
SciTegic.value.DoubleValue
1.335

@<SCITEGIC>MOL_PROPERTY
Idih
SciTegic.value.DoubleValue
0.000

@<SCITEGIC>MOL_PROPERTY
Tether
SciTegic.value.DoubleValue
0.000

@<TRIPOS>MOLECULE
guest-1_confgen4.mol2 : confsearch ligand conformer 929
          17          16           1
SMALL
USER_CHARGES
 
@<TRIPOS>ATOM
       1    N1      20.654040   19.935558   23.211875 N.4        1 MOL1        -0.5891
       2    H1      19.861311   20.497983   22.889843 H          1 MOL1         0.3726
       3    H2      21.506207   20.460851   22.994486 H          1 MOL1         0.3726
       4    H3      20.588795   19.883828   24.233508 H          1 MOL1         0.3726
       5    C1      20.660734   18.558473   22.576698 C.3        1 MOL1         0.0314
       6    H4      19.742400   18.044157   22.871564 H          1 MOL1         0.0999
       7    H5      21.506691   18.004226   22.992277 H          1 MOL1         0.0999
       8    C2      20.772361   18.582820   21.038236 C.3        1 MOL1        -0.1308
       9    H6      21.716827   19.064872   20.753003 H          1 MOL1         0.1025
      10    H7      20.834913   17.548713   20.674211 H          1 MOL1         0.1025
      11    C3      19.595119   19.300812   20.332442 C.3        1 MOL1        -0.1243
      12    H8      19.768025   19.280820   19.247265 H          1 MOL1         0.1025
      13    H9      19.575002   20.361731   20.616518 H          1 MOL1         0.1025
      14    C4      18.223459   18.654899   20.634345 C.3        1 MOL1        -0.2258
      15    H10     18.218036   17.592631   20.357534 H          1 MOL1         0.1036
      16    H11     17.429182   19.153420   20.063758 H          1 MOL1         0.1036
      17    H12     17.965540   18.732966   21.697986 H          1 MOL1         0.1036
@<TRIPOS>BOND
    1     1     2    1
    2     1     3    1
    3     1     4    1
    4     1     5    1
    5     5     6    1
    6     5     7    1
    7     5     8    1
    8     8     9    1
    9     8    10    1
   10     8    11    1
   11    11    12    1
   12    11    13    1
   13    11    14    1
   14    14    15    1
   15    14    16    1
   16    14    17    1
@<TRIPOS>SUBSTRUCTURE
       1 MOL1            1 RESIDUE      1      MOL     
@<SCITEGIC>MOL_PROPERTY
VConf Rank
SciTegic.value.IntegerValue
929

@<SCITEGIC>MOL_PROPERTY
Conf_Id
SciTegic.value.IntegerValue
1

@<SCITEGIC>MOL_PROPERTY
Delta U+W
SciTegic.value.DoubleValue
0.685

@<SCITEGIC>MOL_PROPERTY
U+W
SciTegic.value.DoubleValue
-15.179

@<SCITEGIC>MOL_PROPERTY
Grad RMS
SciTegic.value.DoubleValue
0.000000

@<SCITEGIC>MOL_PROPERTY
U
SciTegic.value.DoubleValue
45.697

@<SCITEGIC>MOL_PROPERTY
W
SciTegic.value.DoubleValue
-60.876

@<SCITEGIC>MOL_PROPERTY
W(PB)
SciTegic.value.DoubleValue
-62.586

@<SCITEGIC>MOL_PROPERTY
W(SA)
SciTegic.value.DoubleValue
1.710

@<SCITEGIC>MOL_PROPERTY
Valence
SciTegic.value.DoubleValue
1.263

@<SCITEGIC>MOL_PROPERTY
Coulomb
SciTegic.value.DoubleValue
44.179

@<SCITEGIC>MOL_PROPERTY
VdW
SciTegic.value.DoubleValue
0.255

@<SCITEGIC>MOL_PROPERTY
VdW6
SciTegic.value.DoubleValue
-3.552

@<SCITEGIC>MOL_PROPERTY
VdW12
SciTegic.value.DoubleValue
3.807

@<SCITEGIC>MOL_PROPERTY
Bond
SciTegic.value.DoubleValue
0.125

@<SCITEGIC>MOL_PROPERTY
Angle
SciTegic.value.DoubleValue
0.616

@<SCITEGIC>MOL_PROPERTY
Pdih
SciTegic.value.DoubleValue
0.521

@<SCITEGIC>MOL_PROPERTY
Idih
SciTegic.value.DoubleValue
0.000

@<SCITEGIC>MOL_PROPERTY
Tether
SciTegic.value.DoubleValue
0.000

@<TRIPOS>MOLECULE
guest-1_confgen4.mol2 : confsearch ligand conformer 930
          17          16           1
SMALL
USER_CHARGES
 
@<TRIPOS>ATOM
       1    N1      20.679667   18.712883   23.409356 N.4        1 MOL1        -0.5891
       2    H1      21.266344   17.873397   23.430578 H          1 MOL1         0.3726
       3    H2      19.704515   18.401319   23.430691 H          1 MOL1         0.3726
       4    H3      20.851521   19.218267   24.284410 H          1 MOL1         0.3726
       5    C1      20.967876   19.574006   22.194752 C.3        1 MOL1         0.0314
       6    H4      22.009835   19.899547   22.257061 H          1 MOL1         0.0999
       7    H5      20.332768   20.461938   22.249719 H          1 MOL1         0.0999
       8    C2      20.737820   18.852206   20.850877 C.3        1 MOL1        -0.1308
       9    H6      21.031510   19.526327   20.035334 H          1 MOL1         0.1025
      10    H7      21.409127   17.985542   20.787731 H          1 MOL1         0.1025
      11    C3      19.276953   18.388222   20.626948 C.3        1 MOL1        -0.1243
      12    H8      18.997669   17.641998   21.383125 H          1 MOL1         0.1025
      13    H9      19.213414   17.875313   19.657004 H          1 MOL1         0.1025
      14    C4      18.261748   19.553894   20.646019 C.3        1 MOL1        -0.2258
      15    H10     17.251816   19.188660   20.418839 H          1 MOL1         0.1036
      16    H11     18.519223   20.313700   19.896707 H          1 MOL1         0.1036
      17    H12     18.224178   20.040820   21.628588 H          1 MOL1         0.1036
@<TRIPOS>BOND
    1     1     2    1
    2     1     3    1
    3     1     4    1
    4     1     5    1
    5     5     6    1
    6     5     7    1
    7     5     8    1
    8     8     9    1
    9     8    10    1
   10     8    11    1
   11    11    12    1
   12    11    13    1
   13    11    14    1
   14    14    15    1
   15    14    16    1
   16    14    17    1
@<TRIPOS>SUBSTRUCTURE
       1 MOL1            1 RESIDUE      1      MOL     
@<SCITEGIC>MOL_PROPERTY
VConf Rank
SciTegic.value.IntegerValue
930

@<SCITEGIC>MOL_PROPERTY
Conf_Id
SciTegic.value.IntegerValue
43

@<SCITEGIC>MOL_PROPERTY
Delta U+W
SciTegic.value.DoubleValue
0.642

@<SCITEGIC>MOL_PROPERTY
U+W
SciTegic.value.DoubleValue
-15.222

@<SCITEGIC>MOL_PROPERTY
Grad RMS
SciTegic.value.DoubleValue
0.000000

@<SCITEGIC>MOL_PROPERTY
U
SciTegic.value.DoubleValue
45.697

@<SCITEGIC>MOL_PROPERTY
W
SciTegic.value.DoubleValue
-60.919

@<SCITEGIC>MOL_PROPERTY
W(PB)
SciTegic.value.DoubleValue
-62.631

@<SCITEGIC>MOL_PROPERTY
W(SA)
SciTegic.value.DoubleValue
1.712

@<SCITEGIC>MOL_PROPERTY
Valence
SciTegic.value.DoubleValue
1.262

@<SCITEGIC>MOL_PROPERTY
Coulomb
SciTegic.value.DoubleValue
44.179

@<SCITEGIC>MOL_PROPERTY
VdW
SciTegic.value.DoubleValue
0.255

@<SCITEGIC>MOL_PROPERTY
VdW6
SciTegic.value.DoubleValue
-3.552

@<SCITEGIC>MOL_PROPERTY
VdW12
SciTegic.value.DoubleValue
3.807

@<SCITEGIC>MOL_PROPERTY
Bond
SciTegic.value.DoubleValue
0.125

@<SCITEGIC>MOL_PROPERTY
Angle
SciTegic.value.DoubleValue
0.616

@<SCITEGIC>MOL_PROPERTY
Pdih
SciTegic.value.DoubleValue
0.521

@<SCITEGIC>MOL_PROPERTY
Idih
SciTegic.value.DoubleValue
0.000

@<SCITEGIC>MOL_PROPERTY
Tether
SciTegic.value.DoubleValue
0.000

@<TRIPOS>MOLECULE
guest-1_confgen4.mol2 : confsearch ligand conformer 931
          17          16           1
SMALL
USER_CHARGES
 
@<TRIPOS>ATOM
       1    N1      21.801464   20.838949   21.452081 N.4        1 MOL1        -0.5891
       2    H1      22.358739   20.519569   22.250290 H          1 MOL1         0.3726
       3    H2      21.244138   21.636045   21.774142 H          1 MOL1         0.3726
       4    H3      22.461315   21.200822   20.755983 H          1 MOL1         0.3726
       5    C1      20.934924   19.732103   20.885198 C.3        1 MOL1         0.0314
       6    H4      21.594097   18.933096   20.535053 H          1 MOL1         0.0999
       7    H5      20.395569   20.133657   20.023006 H          1 MOL1         0.0999
       8    C2      19.930929   19.164869   21.905248 C.3        1 MOL1        -0.1308
       9    H6      20.475230   18.776604   22.776441 H          1 MOL1         0.1025
      10    H7      19.280736   19.972994   22.266041 H          1 MOL1         0.1025
      11    C3      19.069345   18.041351   21.288076 C.3        1 MOL1        -0.1243
      12    H8      19.719836   17.233611   20.923736 H          1 MOL1         0.1025
      13    H9      18.526745   18.428548   20.414011 H          1 MOL1         0.1025
      14    C4      18.059796   17.467396   22.305594 C.3        1 MOL1        -0.2258
      15    H10     17.458058   16.671375   21.848090 H          1 MOL1         0.1036
      16    H11     17.372485   18.245487   22.662507 H          1 MOL1         0.1036
      17    H12     18.575003   17.041172   23.176284 H          1 MOL1         0.1036
@<TRIPOS>BOND
    1     1     2    1
    2     1     3    1
    3     1     4    1
    4     1     5    1
    5     5     6    1
    6     5     7    1
    7     5     8    1
    8     8     9    1
    9     8    10    1
   10     8    11    1
   11    11    12    1
   12    11    13    1
   13    11    14    1
   14    14    15    1
   15    14    16    1
   16    14    17    1
@<TRIPOS>SUBSTRUCTURE
       1 MOL1            1 RESIDUE      1      MOL     
@<SCITEGIC>MOL_PROPERTY
VConf Rank
SciTegic.value.IntegerValue
931

@<SCITEGIC>MOL_PROPERTY
Conf_Id
SciTegic.value.IntegerValue
7

@<SCITEGIC>MOL_PROPERTY
Delta U+W
SciTegic.value.DoubleValue
0.000

@<SCITEGIC>MOL_PROPERTY
U+W
SciTegic.value.DoubleValue
-15.865

@<SCITEGIC>MOL_PROPERTY
Grad RMS
SciTegic.value.DoubleValue
0.000000

@<SCITEGIC>MOL_PROPERTY
U
SciTegic.value.DoubleValue
44.664

@<SCITEGIC>MOL_PROPERTY
W
SciTegic.value.DoubleValue
-60.529

@<SCITEGIC>MOL_PROPERTY
W(PB)
SciTegic.value.DoubleValue
-62.309

@<SCITEGIC>MOL_PROPERTY
W(SA)
SciTegic.value.DoubleValue
1.780

@<SCITEGIC>MOL_PROPERTY
Valence
SciTegic.value.DoubleValue
0.872

@<SCITEGIC>MOL_PROPERTY
Coulomb
SciTegic.value.DoubleValue
43.648

@<SCITEGIC>MOL_PROPERTY
VdW
SciTegic.value.DoubleValue
0.144

@<SCITEGIC>MOL_PROPERTY
VdW6
SciTegic.value.DoubleValue
-2.370

@<SCITEGIC>MOL_PROPERTY
VdW12
SciTegic.value.DoubleValue
2.515

@<SCITEGIC>MOL_PROPERTY
Bond
SciTegic.value.DoubleValue
0.080

@<SCITEGIC>MOL_PROPERTY
Angle
SciTegic.value.DoubleValue
0.376

@<SCITEGIC>MOL_PROPERTY
Pdih
SciTegic.value.DoubleValue
0.416

@<SCITEGIC>MOL_PROPERTY
Idih
SciTegic.value.DoubleValue
0.000

@<SCITEGIC>MOL_PROPERTY
Tether
SciTegic.value.DoubleValue
0.000

@<TRIPOS>MOLECULE
guest-1_confgen4.mol2 : confsearch ligand conformer 932
          17          16           1
SMALL
USER_CHARGES
 
@<TRIPOS>ATOM
       1    N1      18.900397   19.239032   19.440804 N.4        1 MOL1        -0.5891
       2    H1      18.022088   19.759651   19.525518 H          1 MOL1         0.3726
       3    H2      18.654764   18.249835   19.336882 H          1 MOL1         0.3726
       4    H3      19.333936   19.531007   18.558966 H          1 MOL1         0.3726
       5    C1      19.816823   19.474989   20.624799 C.3        1 MOL1         0.0314
       6    H4      20.060529   20.540359   20.656470 H          1 MOL1         0.0999
       7    H5      20.740498   18.916908   20.450996 H          1 MOL1         0.0999
       8    C2      19.195435   19.046224   21.967929 C.3        1 MOL1        -0.1308
       9    H6      18.248491   19.582768   22.113857 H          1 MOL1         0.1025
      10    H7      18.949129   17.976565   21.935506 H          1 MOL1         0.1025
      11    C3      20.124338   19.328231   23.171930 C.3        1 MOL1        -0.1243
      12    H8      19.592440   19.075633   24.099971 H          1 MOL1         0.1025
      13    H9      20.345025   20.403690   23.225478 H          1 MOL1         0.1025
      14    C4      21.446516   18.529116   23.115212 C.3        1 MOL1        -0.2258
      15    H10     21.253728   17.450071   23.055052 H          1 MOL1         0.1036
      16    H11     22.045913   18.712267   24.016425 H          1 MOL1         0.1036
      17    H12     22.055330   18.817428   22.249005 H          1 MOL1         0.1036
@<TRIPOS>BOND
    1     1     2    1
    2     1     3    1
    3     1     4    1
    4     1     5    1
    5     5     6    1
    6     5     7    1
    7     5     8    1
    8     8     9    1
    9     8    10    1
   10     8    11    1
   11    11    12    1
   12    11    13    1
   13    11    14    1
   14    14    15    1
   15    14    16    1
   16    14    17    1
@<TRIPOS>SUBSTRUCTURE
       1 MOL1            1 RESIDUE      1      MOL     
@<SCITEGIC>MOL_PROPERTY
VConf Rank
SciTegic.value.IntegerValue
932

@<SCITEGIC>MOL_PROPERTY
Conf_Id
SciTegic.value.IntegerValue
36

@<SCITEGIC>MOL_PROPERTY
Delta U+W
SciTegic.value.DoubleValue
0.275

@<SCITEGIC>MOL_PROPERTY
U+W
SciTegic.value.DoubleValue
-15.590

@<SCITEGIC>MOL_PROPERTY
Grad RMS
SciTegic.value.DoubleValue
0.000000

@<SCITEGIC>MOL_PROPERTY
U
SciTegic.value.DoubleValue
45.174

@<SCITEGIC>MOL_PROPERTY
W
SciTegic.value.DoubleValue
-60.765

@<SCITEGIC>MOL_PROPERTY
W(PB)
SciTegic.value.DoubleValue
-62.518

@<SCITEGIC>MOL_PROPERTY
W(SA)
SciTegic.value.DoubleValue
1.754

@<SCITEGIC>MOL_PROPERTY
Valence
SciTegic.value.DoubleValue
1.161

@<SCITEGIC>MOL_PROPERTY
Coulomb
SciTegic.value.DoubleValue
43.789

@<SCITEGIC>MOL_PROPERTY
VdW
SciTegic.value.DoubleValue
0.224

@<SCITEGIC>MOL_PROPERTY
VdW6
SciTegic.value.DoubleValue
-2.897

@<SCITEGIC>MOL_PROPERTY
VdW12
SciTegic.value.DoubleValue
3.121

@<SCITEGIC>MOL_PROPERTY
Bond
SciTegic.value.DoubleValue
0.100

@<SCITEGIC>MOL_PROPERTY
Angle
SciTegic.value.DoubleValue
0.500

@<SCITEGIC>MOL_PROPERTY
Pdih
SciTegic.value.DoubleValue
0.561

@<SCITEGIC>MOL_PROPERTY
Idih
SciTegic.value.DoubleValue
0.000

@<SCITEGIC>MOL_PROPERTY
Tether
SciTegic.value.DoubleValue
0.000

@<TRIPOS>MOLECULE
guest-1_confgen4.mol2 : confsearch ligand conformer 933
          17          16           1
SMALL
USER_CHARGES
 
@<TRIPOS>ATOM
       1    N1      21.194895   19.721704   22.757796 N.4        1 MOL1        -0.5891
       2    H1      20.968343   20.367149   21.996928 H          1 MOL1         0.3726
       3    H2      22.088647   19.279956   22.522114 H          1 MOL1         0.3726
       4    H3      21.355384   20.287924   23.597118 H          1 MOL1         0.3726
       5    C1      20.098120   18.696073   22.970391 C.3        1 MOL1         0.0314
       6    H4      19.190061   19.217538   23.284725 H          1 MOL1         0.0999
       7    H5      20.418851   18.050682   23.792668 H          1 MOL1         0.0999
       8    C2      19.797590   17.823005   21.733845 C.3        1 MOL1        -0.1308
       9    H6      20.736513   17.497263   21.266892 H          1 MOL1         0.1025
      10    H7      19.301401   16.907652   22.082805 H          1 MOL1         0.1025
      11    C3      18.876610   18.493066   20.682409 C.3        1 MOL1        -0.1243
      12    H8      17.916224   18.757172   21.147089 H          1 MOL1         0.1025
      13    H9      18.644063   17.752643   19.904151 H          1 MOL1         0.1025
      14    C4      19.482853   19.743779   20.006341 C.3        1 MOL1        -0.2258
      15    H10     19.541333   20.588792   20.702193 H          1 MOL1         0.1036
      16    H11     18.855253   20.062905   19.164062 H          1 MOL1         0.1036
      17    H12     20.487057   19.537414   19.613732 H          1 MOL1         0.1036
@<TRIPOS>BOND
    1     1     2    1
    2     1     3    1
    3     1     4    1
    4     1     5    1
    5     5     6    1
    6     5     7    1
    7     5     8    1
    8     8     9    1
    9     8    10    1
   10     8    11    1
   11    11    12    1
   12    11    13    1
   13    11    14    1
   14    14    15    1
   15    14    16    1
   16    14    17    1
@<TRIPOS>SUBSTRUCTURE
       1 MOL1            1 RESIDUE      1      MOL     
@<SCITEGIC>MOL_PROPERTY
VConf Rank
SciTegic.value.IntegerValue
933

@<SCITEGIC>MOL_PROPERTY
Conf_Id
SciTegic.value.IntegerValue
19

@<SCITEGIC>MOL_PROPERTY
Delta U+W
SciTegic.value.DoubleValue
2.662

@<SCITEGIC>MOL_PROPERTY
U+W
SciTegic.value.DoubleValue
-13.203

@<SCITEGIC>MOL_PROPERTY
Grad RMS
SciTegic.value.DoubleValue
0.000000

@<SCITEGIC>MOL_PROPERTY
U
SciTegic.value.DoubleValue
47.423

@<SCITEGIC>MOL_PROPERTY
W
SciTegic.value.DoubleValue
-60.626

@<SCITEGIC>MOL_PROPERTY
W(PB)
SciTegic.value.DoubleValue
-62.328

@<SCITEGIC>MOL_PROPERTY
W(SA)
SciTegic.value.DoubleValue
1.702

@<SCITEGIC>MOL_PROPERTY
Valence
SciTegic.value.DoubleValue
2.414

@<SCITEGIC>MOL_PROPERTY
Coulomb
SciTegic.value.DoubleValue
44.831

@<SCITEGIC>MOL_PROPERTY
VdW
SciTegic.value.DoubleValue
0.178

@<SCITEGIC>MOL_PROPERTY
VdW6
SciTegic.value.DoubleValue
-3.743

@<SCITEGIC>MOL_PROPERTY
VdW12
SciTegic.value.DoubleValue
3.921

@<SCITEGIC>MOL_PROPERTY
Bond
SciTegic.value.DoubleValue
0.138

@<SCITEGIC>MOL_PROPERTY
Angle
SciTegic.value.DoubleValue
0.941

@<SCITEGIC>MOL_PROPERTY
Pdih
SciTegic.value.DoubleValue
1.335

@<SCITEGIC>MOL_PROPERTY
Idih
SciTegic.value.DoubleValue
0.000

@<SCITEGIC>MOL_PROPERTY
Tether
SciTegic.value.DoubleValue
0.000

@<TRIPOS>MOLECULE
guest-1_confgen4.mol2 : confsearch ligand conformer 934
          17          16           1
SMALL
USER_CHARGES
 
@<TRIPOS>ATOM
       1    N1      19.917486   19.880351   23.268717 N.4        1 MOL1        -0.5891
       2    H1      19.368311   20.241790   24.055222 H          1 MOL1         0.3726
       3    H2      20.878644   20.208952   23.401671 H          1 MOL1         0.3726
       4    H3      19.933365   18.860943   23.354745 H          1 MOL1         0.3726
       5    C1      19.350146   20.323164   21.933771 C.3        1 MOL1         0.0314
       6    H4      19.371078   21.416328   21.924188 H          1 MOL1         0.0999
       7    H5      18.305790   20.004812   21.876543 H          1 MOL1         0.0999
       8    C2      20.125188   19.794713   20.708348 C.3        1 MOL1        -0.1308
       9    H6      19.893051   20.449083   19.857608 H          1 MOL1         0.1025
      10    H7      21.205865   19.891923   20.876919 H          1 MOL1         0.1025
      11    C3      19.771488   18.341279   20.301987 C.3        1 MOL1        -0.1243
      12    H8      20.296334   18.106422   19.365307 H          1 MOL1         0.1025
      13    H9      18.698420   18.271855   20.074555 H          1 MOL1         0.1025
      14    C4      20.144608   17.274238   21.356067 C.3        1 MOL1        -0.2258
      15    H10     21.189702   17.378013   21.675695 H          1 MOL1         0.1036
      16    H11     20.023111   16.266805   20.937174 H          1 MOL1         0.1036
      17    H12     19.496624   17.336175   22.238088 H          1 MOL1         0.1036
@<TRIPOS>BOND
    1     1     2    1
    2     1     3    1
    3     1     4    1
    4     1     5    1
    5     5     6    1
    6     5     7    1
    7     5     8    1
    8     8     9    1
    9     8    10    1
   10     8    11    1
   11    11    12    1
   12    11    13    1
   13    11    14    1
   14    14    15    1
   15    14    16    1
   16    14    17    1
@<TRIPOS>SUBSTRUCTURE
       1 MOL1            1 RESIDUE      1      MOL     
@<SCITEGIC>MOL_PROPERTY
VConf Rank
SciTegic.value.IntegerValue
934

@<SCITEGIC>MOL_PROPERTY
Conf_Id
SciTegic.value.IntegerValue
44

@<SCITEGIC>MOL_PROPERTY
Delta U+W
SciTegic.value.DoubleValue
2.712

@<SCITEGIC>MOL_PROPERTY
U+W
SciTegic.value.DoubleValue
-13.153

@<SCITEGIC>MOL_PROPERTY
Grad RMS
SciTegic.value.DoubleValue
0.000000

@<SCITEGIC>MOL_PROPERTY
U
SciTegic.value.DoubleValue
47.423

@<SCITEGIC>MOL_PROPERTY
W
SciTegic.value.DoubleValue
-60.576

@<SCITEGIC>MOL_PROPERTY
W(PB)
SciTegic.value.DoubleValue
-62.262

@<SCITEGIC>MOL_PROPERTY
W(SA)
SciTegic.value.DoubleValue
1.687

@<SCITEGIC>MOL_PROPERTY
Valence
SciTegic.value.DoubleValue
2.414

@<SCITEGIC>MOL_PROPERTY
Coulomb
SciTegic.value.DoubleValue
44.831

@<SCITEGIC>MOL_PROPERTY
VdW
SciTegic.value.DoubleValue
0.178

@<SCITEGIC>MOL_PROPERTY
VdW6
SciTegic.value.DoubleValue
-3.743

@<SCITEGIC>MOL_PROPERTY
VdW12
SciTegic.value.DoubleValue
3.922

@<SCITEGIC>MOL_PROPERTY
Bond
SciTegic.value.DoubleValue
0.138

@<SCITEGIC>MOL_PROPERTY
Angle
SciTegic.value.DoubleValue
0.941

@<SCITEGIC>MOL_PROPERTY
Pdih
SciTegic.value.DoubleValue
1.335

@<SCITEGIC>MOL_PROPERTY
Idih
SciTegic.value.DoubleValue
0.000

@<SCITEGIC>MOL_PROPERTY
Tether
SciTegic.value.DoubleValue
0.000

@<TRIPOS>MOLECULE
guest-1_confgen4.mol2 : confsearch ligand conformer 935
          17          16           1
SMALL
USER_CHARGES
 
@<TRIPOS>ATOM
       1    N1      18.565435   18.986976   20.145988 N.4        1 MOL1        -0.5891
       2    H1      18.515139   19.917135   20.571102 H          1 MOL1         0.3726
       3    H2      17.724683   18.476952   20.433024 H          1 MOL1         0.3726
       4    H3      18.502206   19.117913   19.131333 H          1 MOL1         0.3726
       5    C1      19.833615   18.255920   20.542388 C.3        1 MOL1         0.0314
       6    H4      20.686831   18.836366   20.181957 H          1 MOL1         0.0999
       7    H5      19.837928   17.292419   20.025487 H          1 MOL1         0.0999
       8    C2      19.968325   18.021287   22.061177 C.3        1 MOL1        -0.1308
       9    H6      19.128707   17.403470   22.406274 H          1 MOL1         0.1025
      10    H7      20.876936   17.433164   22.246490 H          1 MOL1         0.1025
      11    C3      20.025616   19.324057   22.897278 C.3        1 MOL1        -0.1243
      12    H8      20.106343   19.058639   23.960736 H          1 MOL1         0.1025
      13    H9      19.084032   19.880395   22.794512 H          1 MOL1         0.1025
      14    C4      21.213770   20.236538   22.515879 C.3        1 MOL1        -0.2258
      15    H10     22.168067   19.702494   22.611703 H          1 MOL1         0.1036
      16    H11     21.253213   21.113149   23.175398 H          1 MOL1         0.1036
      17    H12     21.127797   20.601887   21.484823 H          1 MOL1         0.1036
@<TRIPOS>BOND
    1     1     2    1
    2     1     3    1
    3     1     4    1
    4     1     5    1
    5     5     6    1
    6     5     7    1
    7     5     8    1
    8     8     9    1
    9     8    10    1
   10     8    11    1
   11    11    12    1
   12    11    13    1
   13    11    14    1
   14    14    15    1
   15    14    16    1
   16    14    17    1
@<TRIPOS>SUBSTRUCTURE
       1 MOL1            1 RESIDUE      1      MOL     
@<SCITEGIC>MOL_PROPERTY
VConf Rank
SciTegic.value.IntegerValue
935

@<SCITEGIC>MOL_PROPERTY
Conf_Id
SciTegic.value.IntegerValue
1

@<SCITEGIC>MOL_PROPERTY
Delta U+W
SciTegic.value.DoubleValue
0.685

@<SCITEGIC>MOL_PROPERTY
U+W
SciTegic.value.DoubleValue
-15.179

@<SCITEGIC>MOL_PROPERTY
Grad RMS
SciTegic.value.DoubleValue
0.000000

@<SCITEGIC>MOL_PROPERTY
U
SciTegic.value.DoubleValue
45.697

@<SCITEGIC>MOL_PROPERTY
W
SciTegic.value.DoubleValue
-60.876

@<SCITEGIC>MOL_PROPERTY
W(PB)
SciTegic.value.DoubleValue
-62.586

@<SCITEGIC>MOL_PROPERTY
W(SA)
SciTegic.value.DoubleValue
1.710

@<SCITEGIC>MOL_PROPERTY
Valence
SciTegic.value.DoubleValue
1.263

@<SCITEGIC>MOL_PROPERTY
Coulomb
SciTegic.value.DoubleValue
44.179

@<SCITEGIC>MOL_PROPERTY
VdW
SciTegic.value.DoubleValue
0.255

@<SCITEGIC>MOL_PROPERTY
VdW6
SciTegic.value.DoubleValue
-3.552

@<SCITEGIC>MOL_PROPERTY
VdW12
SciTegic.value.DoubleValue
3.807

@<SCITEGIC>MOL_PROPERTY
Bond
SciTegic.value.DoubleValue
0.125

@<SCITEGIC>MOL_PROPERTY
Angle
SciTegic.value.DoubleValue
0.616

@<SCITEGIC>MOL_PROPERTY
Pdih
SciTegic.value.DoubleValue
0.521

@<SCITEGIC>MOL_PROPERTY
Idih
SciTegic.value.DoubleValue
0.000

@<SCITEGIC>MOL_PROPERTY
Tether
SciTegic.value.DoubleValue
0.000

@<TRIPOS>MOLECULE
guest-1_confgen4.mol2 : confsearch ligand conformer 936
          17          16           1
SMALL
USER_CHARGES
 
@<TRIPOS>ATOM
       1    N1      21.687497   18.728906   20.732844 N.4        1 MOL1        -0.5891
       2    H1      21.827181   19.357805   19.936383 H          1 MOL1         0.3726
       3    H2      21.065971   17.977709   20.420020 H          1 MOL1         0.3726
       4    H3      22.596037   18.300242   20.936483 H          1 MOL1         0.3726
       5    C1      21.125188   19.458165   21.937770 C.3        1 MOL1         0.0314
       6    H4      21.853722   20.216195   22.238048 H          1 MOL1         0.0999
       7    H5      21.029394   18.739160   22.755486 H          1 MOL1         0.0999
       8    C2      19.763105   20.133900   21.676936 C.3        1 MOL1        -0.1308
       9    H6      19.467328   20.687381   22.578035 H          1 MOL1         0.1025
      10    H7      19.878679   20.882942   20.882375 H          1 MOL1         0.1025
      11    C3      18.633360   19.146422   21.292070 C.3        1 MOL1        -0.1243
      12    H8      18.872839   18.650572   20.341577 H          1 MOL1         0.1025
      13    H9      17.711083   19.716584   21.112562 H          1 MOL1         0.1025
      14    C4      18.362232   18.082579   22.380429 C.3        1 MOL1        -0.2258
      15    H10     17.513541   17.447519   22.095139 H          1 MOL1         0.1036
      16    H11     18.119047   18.554264   23.341388 H          1 MOL1         0.1036
      17    H12     19.229783   17.427694   22.530195 H          1 MOL1         0.1036
@<TRIPOS>BOND
    1     1     2    1
    2     1     3    1
    3     1     4    1
    4     1     5    1
    5     5     6    1
    6     5     7    1
    7     5     8    1
    8     8     9    1
    9     8    10    1
   10     8    11    1
   11    11    12    1
   12    11    13    1
   13    11    14    1
   14    14    15    1
   15    14    16    1
   16    14    17    1
@<TRIPOS>SUBSTRUCTURE
       1 MOL1            1 RESIDUE      1      MOL     
@<SCITEGIC>MOL_PROPERTY
VConf Rank
SciTegic.value.IntegerValue
936

@<SCITEGIC>MOL_PROPERTY
Conf_Id
SciTegic.value.IntegerValue
43

@<SCITEGIC>MOL_PROPERTY
Delta U+W
SciTegic.value.DoubleValue
0.642

@<SCITEGIC>MOL_PROPERTY
U+W
SciTegic.value.DoubleValue
-15.222

@<SCITEGIC>MOL_PROPERTY
Grad RMS
SciTegic.value.DoubleValue
0.000000

@<SCITEGIC>MOL_PROPERTY
U
SciTegic.value.DoubleValue
45.697

@<SCITEGIC>MOL_PROPERTY
W
SciTegic.value.DoubleValue
-60.919

@<SCITEGIC>MOL_PROPERTY
W(PB)
SciTegic.value.DoubleValue
-62.631

@<SCITEGIC>MOL_PROPERTY
W(SA)
SciTegic.value.DoubleValue
1.712

@<SCITEGIC>MOL_PROPERTY
Valence
SciTegic.value.DoubleValue
1.262

@<SCITEGIC>MOL_PROPERTY
Coulomb
SciTegic.value.DoubleValue
44.179

@<SCITEGIC>MOL_PROPERTY
VdW
SciTegic.value.DoubleValue
0.255

@<SCITEGIC>MOL_PROPERTY
VdW6
SciTegic.value.DoubleValue
-3.552

@<SCITEGIC>MOL_PROPERTY
VdW12
SciTegic.value.DoubleValue
3.807

@<SCITEGIC>MOL_PROPERTY
Bond
SciTegic.value.DoubleValue
0.125

@<SCITEGIC>MOL_PROPERTY
Angle
SciTegic.value.DoubleValue
0.616

@<SCITEGIC>MOL_PROPERTY
Pdih
SciTegic.value.DoubleValue
0.521

@<SCITEGIC>MOL_PROPERTY
Idih
SciTegic.value.DoubleValue
0.000

@<SCITEGIC>MOL_PROPERTY
Tether
SciTegic.value.DoubleValue
0.000

@<TRIPOS>MOLECULE
guest-1_confgen4.mol2 : confsearch ligand conformer 937
          17          16           1
SMALL
USER_CHARGES
 
@<TRIPOS>ATOM
       1    N1      21.118710   21.250402   22.268486 N.4        1 MOL1        -0.5891
       2    H1      20.275477   21.780476   22.508644 H          1 MOL1         0.3726
       3    H2      21.399931   21.542793   21.327678 H          1 MOL1         0.3726
       4    H3      21.856596   21.561755   22.908401 H          1 MOL1         0.3726
       5    C1      20.892644   19.754116   22.354383 C.3        1 MOL1         0.0314
       6    H4      20.627420   19.511507   23.387011 H          1 MOL1         0.0999
       7    H5      21.836590   19.255916   22.117132 H          1 MOL1         0.0999
       8    C2      19.789558   19.251699   21.405151 C.3        1 MOL1        -0.1308
       9    H6      18.846871   19.765458   21.636202 H          1 MOL1         0.1025
      10    H7      20.051947   19.510610   20.370691 H          1 MOL1         0.1025
      11    C3      19.591529   17.724560   21.524115 C.3        1 MOL1        -0.1243
      12    H8      19.332109   17.464404   22.560139 H          1 MOL1         0.1025
      13    H9      20.535681   17.209862   21.296105 H          1 MOL1         0.1025
      14    C4      18.486381   17.213303   20.574790 C.3        1 MOL1        -0.2258
      15    H10     18.361314   16.127267   20.674456 H          1 MOL1         0.1036
      16    H11     18.734354   17.428456   19.527209 H          1 MOL1         0.1036
      17    H12     17.521293   17.685060   20.801190 H          1 MOL1         0.1036
@<TRIPOS>BOND
    1     1     2    1
    2     1     3    1
    3     1     4    1
    4     1     5    1
    5     5     6    1
    6     5     7    1
    7     5     8    1
    8     8     9    1
    9     8    10    1
   10     8    11    1
   11    11    12    1
   12    11    13    1
   13    11    14    1
   14    14    15    1
   15    14    16    1
   16    14    17    1
@<TRIPOS>SUBSTRUCTURE
       1 MOL1            1 RESIDUE      1      MOL     
@<SCITEGIC>MOL_PROPERTY
VConf Rank
SciTegic.value.IntegerValue
937

@<SCITEGIC>MOL_PROPERTY
Conf_Id
SciTegic.value.IntegerValue
7

@<SCITEGIC>MOL_PROPERTY
Delta U+W
SciTegic.value.DoubleValue
0.000

@<SCITEGIC>MOL_PROPERTY
U+W
SciTegic.value.DoubleValue
-15.865

@<SCITEGIC>MOL_PROPERTY
Grad RMS
SciTegic.value.DoubleValue
0.000000

@<SCITEGIC>MOL_PROPERTY
U
SciTegic.value.DoubleValue
44.664

@<SCITEGIC>MOL_PROPERTY
W
SciTegic.value.DoubleValue
-60.529

@<SCITEGIC>MOL_PROPERTY
W(PB)
SciTegic.value.DoubleValue
-62.309

@<SCITEGIC>MOL_PROPERTY
W(SA)
SciTegic.value.DoubleValue
1.780

@<SCITEGIC>MOL_PROPERTY
Valence
SciTegic.value.DoubleValue
0.872

@<SCITEGIC>MOL_PROPERTY
Coulomb
SciTegic.value.DoubleValue
43.648

@<SCITEGIC>MOL_PROPERTY
VdW
SciTegic.value.DoubleValue
0.144

@<SCITEGIC>MOL_PROPERTY
VdW6
SciTegic.value.DoubleValue
-2.370

@<SCITEGIC>MOL_PROPERTY
VdW12
SciTegic.value.DoubleValue
2.515

@<SCITEGIC>MOL_PROPERTY
Bond
SciTegic.value.DoubleValue
0.080

@<SCITEGIC>MOL_PROPERTY
Angle
SciTegic.value.DoubleValue
0.376

@<SCITEGIC>MOL_PROPERTY
Pdih
SciTegic.value.DoubleValue
0.416

@<SCITEGIC>MOL_PROPERTY
Idih
SciTegic.value.DoubleValue
0.000

@<SCITEGIC>MOL_PROPERTY
Tether
SciTegic.value.DoubleValue
0.000

@<TRIPOS>MOLECULE
guest-1_confgen4.mol2 : confsearch ligand conformer 938
          17          16           1
SMALL
USER_CHARGES
 
@<TRIPOS>ATOM
       1    N1      19.553045   20.110482   23.778450 N.4        1 MOL1        -0.5891
       2    H1      18.966478   19.484123   24.338148 H          1 MOL1         0.3726
       3    H2      18.956538   20.883369   23.467848 H          1 MOL1         0.3726
       4    H3      20.249825   20.511059   24.414751 H          1 MOL1         0.3726
       5    C1      20.201804   19.390429   22.613121 C.3        1 MOL1         0.0314
       6    H4      20.843379   18.602814   23.017415 H          1 MOL1         0.0999
       7    H5      20.832983   20.108918   22.083759 H          1 MOL1         0.0999
       8    C2      19.181549   18.775862   21.635704 C.3        1 MOL1        -0.1308
       9    H6      18.527109   18.086243   22.185259 H          1 MOL1         0.1025
      10    H7      18.536093   19.566705   21.230932 H          1 MOL1         0.1025
      11    C3      19.855672   18.010785   20.472852 C.3        1 MOL1        -0.1243
      12    H8      19.077460   17.532182   19.861864 H          1 MOL1         0.1025
      13    H9      20.476114   17.197491   20.875079 H          1 MOL1         0.1025
      14    C4      20.716873   18.922301   19.568735 C.3        1 MOL1        -0.2258
      15    H10     20.121179   19.747950   19.158155 H          1 MOL1         0.1036
      16    H11     21.125046   18.351894   18.724319 H          1 MOL1         0.1036
      17    H12     21.564236   19.351165   20.118410 H          1 MOL1         0.1036
@<TRIPOS>BOND
    1     1     2    1
    2     1     3    1
    3     1     4    1
    4     1     5    1
    5     5     6    1
    6     5     7    1
    7     5     8    1
    8     8     9    1
    9     8    10    1
   10     8    11    1
   11    11    12    1
   12    11    13    1
   13    11    14    1
   14    14    15    1
   15    14    16    1
   16    14    17    1
@<TRIPOS>SUBSTRUCTURE
       1 MOL1            1 RESIDUE      1      MOL     
@<SCITEGIC>MOL_PROPERTY
VConf Rank
SciTegic.value.IntegerValue
938

@<SCITEGIC>MOL_PROPERTY
Conf_Id
SciTegic.value.IntegerValue
36

@<SCITEGIC>MOL_PROPERTY
Delta U+W
SciTegic.value.DoubleValue
0.275

@<SCITEGIC>MOL_PROPERTY
U+W
SciTegic.value.DoubleValue
-15.590

@<SCITEGIC>MOL_PROPERTY
Grad RMS
SciTegic.value.DoubleValue
0.000000

@<SCITEGIC>MOL_PROPERTY
U
SciTegic.value.DoubleValue
45.174

@<SCITEGIC>MOL_PROPERTY
W
SciTegic.value.DoubleValue
-60.765

@<SCITEGIC>MOL_PROPERTY
W(PB)
SciTegic.value.DoubleValue
-62.518

@<SCITEGIC>MOL_PROPERTY
W(SA)
SciTegic.value.DoubleValue
1.754

@<SCITEGIC>MOL_PROPERTY
Valence
SciTegic.value.DoubleValue
1.161

@<SCITEGIC>MOL_PROPERTY
Coulomb
SciTegic.value.DoubleValue
43.789

@<SCITEGIC>MOL_PROPERTY
VdW
SciTegic.value.DoubleValue
0.224

@<SCITEGIC>MOL_PROPERTY
VdW6
SciTegic.value.DoubleValue
-2.897

@<SCITEGIC>MOL_PROPERTY
VdW12
SciTegic.value.DoubleValue
3.121

@<SCITEGIC>MOL_PROPERTY
Bond
SciTegic.value.DoubleValue
0.100

@<SCITEGIC>MOL_PROPERTY
Angle
SciTegic.value.DoubleValue
0.500

@<SCITEGIC>MOL_PROPERTY
Pdih
SciTegic.value.DoubleValue
0.561

@<SCITEGIC>MOL_PROPERTY
Idih
SciTegic.value.DoubleValue
0.000

@<SCITEGIC>MOL_PROPERTY
Tether
SciTegic.value.DoubleValue
0.000

@<TRIPOS>MOLECULE
guest-1_confgen4.mol2 : confsearch ligand conformer 939
          17          16           1
SMALL
USER_CHARGES
 
@<TRIPOS>ATOM
       1    N1      18.385026   19.268744   22.582727 N.4        1 MOL1        -0.5891
       2    H1      18.404322   18.328724   22.179199 H          1 MOL1         0.3726
       3    H2      17.774850   19.838893   21.989352 H          1 MOL1         0.3726
       4    H3      17.927126   19.196130   23.496991 H          1 MOL1         0.3726
       5    C1      19.776543   19.861439   22.694179 C.3        1 MOL1         0.0314
       6    H4      20.359683   19.252245   23.389976 H          1 MOL1         0.0999
       7    H5      19.665579   20.858399   23.129259 H          1 MOL1         0.0999
       8    C2      20.525153   19.980043   21.349884 C.3        1 MOL1        -0.1308
       9    H6      19.849681   20.369969   20.576953 H          1 MOL1         0.1025
      10    H7      21.312678   20.735726   21.470688 H          1 MOL1         0.1025
      11    C3      21.194260   18.667202   20.868792 C.3        1 MOL1        -0.1243
      12    H8      21.914438   18.321288   21.623584 H          1 MOL1         0.1025
      13    H9      21.782227   18.888793   19.967027 H          1 MOL1         0.1025
      14    C4      20.203024   17.527184   20.542155 C.3        1 MOL1        -0.2258
      15    H10     19.739006   17.124966   21.450221 H          1 MOL1         0.1036
      16    H11     20.727071   16.695867   20.052828 H          1 MOL1         0.1036
      17    H12     19.412531   17.869104   19.861445 H          1 MOL1         0.1036
@<TRIPOS>BOND
    1     1     2    1
    2     1     3    1
    3     1     4    1
    4     1     5    1
    5     5     6    1
    6     5     7    1
    7     5     8    1
    8     8     9    1
    9     8    10    1
   10     8    11    1
   11    11    12    1
   12    11    13    1
   13    11    14    1
   14    14    15    1
   15    14    16    1
   16    14    17    1
@<TRIPOS>SUBSTRUCTURE
       1 MOL1            1 RESIDUE      1      MOL     
@<SCITEGIC>MOL_PROPERTY
VConf Rank
SciTegic.value.IntegerValue
939

@<SCITEGIC>MOL_PROPERTY
Conf_Id
SciTegic.value.IntegerValue
19

@<SCITEGIC>MOL_PROPERTY
Delta U+W
SciTegic.value.DoubleValue
2.662

@<SCITEGIC>MOL_PROPERTY
U+W
SciTegic.value.DoubleValue
-13.203

@<SCITEGIC>MOL_PROPERTY
Grad RMS
SciTegic.value.DoubleValue
0.000000

@<SCITEGIC>MOL_PROPERTY
U
SciTegic.value.DoubleValue
47.423

@<SCITEGIC>MOL_PROPERTY
W
SciTegic.value.DoubleValue
-60.626

@<SCITEGIC>MOL_PROPERTY
W(PB)
SciTegic.value.DoubleValue
-62.328

@<SCITEGIC>MOL_PROPERTY
W(SA)
SciTegic.value.DoubleValue
1.702

@<SCITEGIC>MOL_PROPERTY
Valence
SciTegic.value.DoubleValue
2.414

@<SCITEGIC>MOL_PROPERTY
Coulomb
SciTegic.value.DoubleValue
44.831

@<SCITEGIC>MOL_PROPERTY
VdW
SciTegic.value.DoubleValue
0.178

@<SCITEGIC>MOL_PROPERTY
VdW6
SciTegic.value.DoubleValue
-3.743

@<SCITEGIC>MOL_PROPERTY
VdW12
SciTegic.value.DoubleValue
3.921

@<SCITEGIC>MOL_PROPERTY
Bond
SciTegic.value.DoubleValue
0.138

@<SCITEGIC>MOL_PROPERTY
Angle
SciTegic.value.DoubleValue
0.941

@<SCITEGIC>MOL_PROPERTY
Pdih
SciTegic.value.DoubleValue
1.335

@<SCITEGIC>MOL_PROPERTY
Idih
SciTegic.value.DoubleValue
0.000

@<SCITEGIC>MOL_PROPERTY
Tether
SciTegic.value.DoubleValue
0.000

@<TRIPOS>MOLECULE
guest-1_confgen4.mol2 : confsearch ligand conformer 940
          17          16           1
SMALL
USER_CHARGES
 
@<TRIPOS>ATOM
       1    N1      19.027072   20.443767   22.503836 N.4        1 MOL1        -0.5891
       2    H1      18.183456   21.020938   22.581359 H          1 MOL1         0.3726
       3    H2      19.743363   20.884584   23.088719 H          1 MOL1         0.3726
       4    H3      18.811733   19.536266   22.924447 H          1 MOL1         0.3726
       5    C1      19.483511   20.302247   21.064504 C.3        1 MOL1         0.0314
       6    H4      19.693049   21.309745   20.694940 H          1 MOL1         0.0999
       7    H5      18.658395   19.891566   20.476435 H          1 MOL1         0.0999
       8    C2      20.741689   19.427643   20.881018 C.3        1 MOL1        -0.1308
       9    H6      21.196243   19.692853   19.917228 H          1 MOL1         0.1025
      10    H7      21.488654   19.679068   21.645581 H          1 MOL1         0.1025
      11    C3      20.468575   17.901838   20.875274 C.3        1 MOL1        -0.1243
      12    H8      21.407170   17.383225   20.634296 H          1 MOL1         0.1025
      13    H9      19.768318   17.654780   20.064951 H          1 MOL1         0.1025
      14    C4      19.927368   17.344476   22.211434 C.3        1 MOL1        -0.2258
      15    H10     20.555437   17.655116   23.056528 H          1 MOL1         0.1036
      16    H11     19.917552   16.246938   22.189770 H          1 MOL1         0.1036
      17    H12     18.897624   17.671795   22.396282 H          1 MOL1         0.1036
@<TRIPOS>BOND
    1     1     2    1
    2     1     3    1
    3     1     4    1
    4     1     5    1
    5     5     6    1
    6     5     7    1
    7     5     8    1
    8     8     9    1
    9     8    10    1
   10     8    11    1
   11    11    12    1
   12    11    13    1
   13    11    14    1
   14    14    15    1
   15    14    16    1
   16    14    17    1
@<TRIPOS>SUBSTRUCTURE
       1 MOL1            1 RESIDUE      1      MOL     
@<SCITEGIC>MOL_PROPERTY
VConf Rank
SciTegic.value.IntegerValue
940

@<SCITEGIC>MOL_PROPERTY
Conf_Id
SciTegic.value.IntegerValue
44

@<SCITEGIC>MOL_PROPERTY
Delta U+W
SciTegic.value.DoubleValue
2.712

@<SCITEGIC>MOL_PROPERTY
U+W
SciTegic.value.DoubleValue
-13.153

@<SCITEGIC>MOL_PROPERTY
Grad RMS
SciTegic.value.DoubleValue
0.000000

@<SCITEGIC>MOL_PROPERTY
U
SciTegic.value.DoubleValue
47.423

@<SCITEGIC>MOL_PROPERTY
W
SciTegic.value.DoubleValue
-60.576

@<SCITEGIC>MOL_PROPERTY
W(PB)
SciTegic.value.DoubleValue
-62.262

@<SCITEGIC>MOL_PROPERTY
W(SA)
SciTegic.value.DoubleValue
1.687

@<SCITEGIC>MOL_PROPERTY
Valence
SciTegic.value.DoubleValue
2.414

@<SCITEGIC>MOL_PROPERTY
Coulomb
SciTegic.value.DoubleValue
44.831

@<SCITEGIC>MOL_PROPERTY
VdW
SciTegic.value.DoubleValue
0.178

@<SCITEGIC>MOL_PROPERTY
VdW6
SciTegic.value.DoubleValue
-3.743

@<SCITEGIC>MOL_PROPERTY
VdW12
SciTegic.value.DoubleValue
3.922

@<SCITEGIC>MOL_PROPERTY
Bond
SciTegic.value.DoubleValue
0.138

@<SCITEGIC>MOL_PROPERTY
Angle
SciTegic.value.DoubleValue
0.941

@<SCITEGIC>MOL_PROPERTY
Pdih
SciTegic.value.DoubleValue
1.335

@<SCITEGIC>MOL_PROPERTY
Idih
SciTegic.value.DoubleValue
0.000

@<SCITEGIC>MOL_PROPERTY
Tether
SciTegic.value.DoubleValue
0.000

@<TRIPOS>MOLECULE
guest-1_confgen4.mol2 : confsearch ligand conformer 941
          17          16           1
SMALL
USER_CHARGES
 
@<TRIPOS>ATOM
       1    N1      18.982839   17.287490   21.653660 N.4        1 MOL1        -0.5891
       2    H1      18.661058   17.774656   20.812488 H          1 MOL1         0.3726
       3    H2      18.207920   17.295869   22.323594 H          1 MOL1         0.3726
       4    H3      19.138971   16.308956   21.391434 H          1 MOL1         0.3726
       5    C1      20.233890   17.924086   22.227658 C.3        1 MOL1         0.0314
       6    H4      21.025013   17.855331   21.476524 H          1 MOL1         0.0999
       7    H5      20.539807   17.333546   23.095538 H          1 MOL1         0.0999
       8    C2      20.045568   19.395352   22.651723 C.3        1 MOL1        -0.1308
       9    H6      19.277997   19.449203   23.435103 H          1 MOL1         0.1025
      10    H7      20.977290   19.750268   23.111867 H          1 MOL1         0.1025
      11    C3      19.659564   20.341982   21.487916 C.3        1 MOL1        -0.1243
      12    H8      19.533539   21.358689   21.885822 H          1 MOL1         0.1025
      13    H9      18.682725   20.054744   21.075684 H          1 MOL1         0.1025
      14    C4      20.713282   20.372320   20.357184 C.3        1 MOL1        -0.2258
      15    H10     21.699744   20.658368   20.744659 H          1 MOL1         0.1036
      16    H11     20.431400   21.102664   19.587698 H          1 MOL1         0.1036
      17    H12     20.808036   19.395239   19.866997 H          1 MOL1         0.1036
@<TRIPOS>BOND
    1     1     2    1
    2     1     3    1
    3     1     4    1
    4     1     5    1
    5     5     6    1
    6     5     7    1
    7     5     8    1
    8     8     9    1
    9     8    10    1
   10     8    11    1
   11    11    12    1
   12    11    13    1
   13    11    14    1
   14    14    15    1
   15    14    16    1
   16    14    17    1
@<TRIPOS>SUBSTRUCTURE
       1 MOL1            1 RESIDUE      1      MOL     
@<SCITEGIC>MOL_PROPERTY
VConf Rank
SciTegic.value.IntegerValue
941

@<SCITEGIC>MOL_PROPERTY
Conf_Id
SciTegic.value.IntegerValue
1

@<SCITEGIC>MOL_PROPERTY
Delta U+W
SciTegic.value.DoubleValue
0.685

@<SCITEGIC>MOL_PROPERTY
U+W
SciTegic.value.DoubleValue
-15.179

@<SCITEGIC>MOL_PROPERTY
Grad RMS
SciTegic.value.DoubleValue
0.000000

@<SCITEGIC>MOL_PROPERTY
U
SciTegic.value.DoubleValue
45.697

@<SCITEGIC>MOL_PROPERTY
W
SciTegic.value.DoubleValue
-60.876

@<SCITEGIC>MOL_PROPERTY
W(PB)
SciTegic.value.DoubleValue
-62.586

@<SCITEGIC>MOL_PROPERTY
W(SA)
SciTegic.value.DoubleValue
1.710

@<SCITEGIC>MOL_PROPERTY
Valence
SciTegic.value.DoubleValue
1.263

@<SCITEGIC>MOL_PROPERTY
Coulomb
SciTegic.value.DoubleValue
44.179

@<SCITEGIC>MOL_PROPERTY
VdW
SciTegic.value.DoubleValue
0.255

@<SCITEGIC>MOL_PROPERTY
VdW6
SciTegic.value.DoubleValue
-3.552

@<SCITEGIC>MOL_PROPERTY
VdW12
SciTegic.value.DoubleValue
3.807

@<SCITEGIC>MOL_PROPERTY
Bond
SciTegic.value.DoubleValue
0.125

@<SCITEGIC>MOL_PROPERTY
Angle
SciTegic.value.DoubleValue
0.616

@<SCITEGIC>MOL_PROPERTY
Pdih
SciTegic.value.DoubleValue
0.521

@<SCITEGIC>MOL_PROPERTY
Idih
SciTegic.value.DoubleValue
0.000

@<SCITEGIC>MOL_PROPERTY
Tether
SciTegic.value.DoubleValue
0.000

@<TRIPOS>MOLECULE
guest-1_confgen4.mol2 : confsearch ligand conformer 942
          17          16           1
SMALL
USER_CHARGES
 
@<TRIPOS>ATOM
       1    N1      19.979318   18.877301   19.619569 N.4        1 MOL1        -0.5891
       2    H1      19.175975   18.352499   19.260961 H          1 MOL1         0.3726
       3    H2      20.645062   18.194416   19.992264 H          1 MOL1         0.3726
       4    H3      20.427859   19.322912   18.812779 H          1 MOL1         0.3726
       5    C1      19.569186   19.892517   20.668848 C.3        1 MOL1         0.0314
       6    H4      18.891893   20.607386   20.193691 H          1 MOL1         0.0999
       7    H5      20.464302   20.434281   20.985180 H          1 MOL1         0.0999
       8    C2      18.875236   19.271334   21.898679 C.3        1 MOL1        -0.1308
       9    H6      18.558413   20.080972   22.569435 H          1 MOL1         0.1025
      10    H7      17.956135   18.764432   21.576107 H          1 MOL1         0.1025
      11    C3      19.762284   18.275207   22.686355 C.3        1 MOL1        -0.1243
      12    H8      20.012364   17.411640   22.055193 H          1 MOL1         0.1025
      13    H9      19.182375   17.876010   23.530305 H          1 MOL1         0.1025
      14    C4      21.059989   18.917444   23.227920 C.3        1 MOL1        -0.2258
      15    H10     21.623627   18.195317   23.832745 H          1 MOL1         0.1036
      16    H11     20.835937   19.783788   23.863779 H          1 MOL1         0.1036
      17    H12     21.716031   19.250583   22.413932 H          1 MOL1         0.1036
@<TRIPOS>BOND
    1     1     2    1
    2     1     3    1
    3     1     4    1
    4     1     5    1
    5     5     6    1
    6     5     7    1
    7     5     8    1
    8     8     9    1
    9     8    10    1
   10     8    11    1
   11    11    12    1
   12    11    13    1
   13    11    14    1
   14    14    15    1
   15    14    16    1
   16    14    17    1
@<TRIPOS>SUBSTRUCTURE
       1 MOL1            1 RESIDUE      1      MOL     
@<SCITEGIC>MOL_PROPERTY
VConf Rank
SciTegic.value.IntegerValue
942

@<SCITEGIC>MOL_PROPERTY
Conf_Id
SciTegic.value.IntegerValue
43

@<SCITEGIC>MOL_PROPERTY
Delta U+W
SciTegic.value.DoubleValue
0.642

@<SCITEGIC>MOL_PROPERTY
U+W
SciTegic.value.DoubleValue
-15.222

@<SCITEGIC>MOL_PROPERTY
Grad RMS
SciTegic.value.DoubleValue
0.000000

@<SCITEGIC>MOL_PROPERTY
U
SciTegic.value.DoubleValue
45.697

@<SCITEGIC>MOL_PROPERTY
W
SciTegic.value.DoubleValue
-60.919

@<SCITEGIC>MOL_PROPERTY
W(PB)
SciTegic.value.DoubleValue
-62.631

@<SCITEGIC>MOL_PROPERTY
W(SA)
SciTegic.value.DoubleValue
1.712

@<SCITEGIC>MOL_PROPERTY
Valence
SciTegic.value.DoubleValue
1.262

@<SCITEGIC>MOL_PROPERTY
Coulomb
SciTegic.value.DoubleValue
44.179

@<SCITEGIC>MOL_PROPERTY
VdW
SciTegic.value.DoubleValue
0.255

@<SCITEGIC>MOL_PROPERTY
VdW6
SciTegic.value.DoubleValue
-3.552

@<SCITEGIC>MOL_PROPERTY
VdW12
SciTegic.value.DoubleValue
3.807

@<SCITEGIC>MOL_PROPERTY
Bond
SciTegic.value.DoubleValue
0.125

@<SCITEGIC>MOL_PROPERTY
Angle
SciTegic.value.DoubleValue
0.616

@<SCITEGIC>MOL_PROPERTY
Pdih
SciTegic.value.DoubleValue
0.521

@<SCITEGIC>MOL_PROPERTY
Idih
SciTegic.value.DoubleValue
0.000

@<SCITEGIC>MOL_PROPERTY
Tether
SciTegic.value.DoubleValue
0.000

@<TRIPOS>MOLECULE
guest-1_confgen4.mol2 : confsearch ligand conformer 943
          17          16           1
SMALL
USER_CHARGES
 
@<TRIPOS>ATOM
       1    N1      21.163675   16.816888   21.909297 N.4        1 MOL1        -0.5891
       2    H1      22.098055   17.193422   22.095985 H          1 MOL1         0.3726
       3    H2      21.148506   16.522860   20.927964 H          1 MOL1         0.3726
       4    H3      21.068372   15.967069   22.474658 H          1 MOL1         0.3726
       5    C1      20.073561   17.823910   22.217378 C.3        1 MOL1         0.0314
       6    H4      20.129910   18.067355   23.281842 H          1 MOL1         0.0999
       7    H5      19.108827   17.346267   22.025883 H          1 MOL1         0.0999
       8    C2      20.186491   19.114035   21.384860 C.3        1 MOL1        -0.1308
       9    H6      21.162633   19.582673   21.567937 H          1 MOL1         0.1025
      10    H7      20.144915   18.864087   20.316316 H          1 MOL1         0.1025
      11    C3      19.058669   20.111500   21.729248 C.3        1 MOL1        -0.1243
      12    H8      19.097712   20.359521   22.799429 H          1 MOL1         0.1025
      13    H9      18.081243   19.641849   21.549270 H          1 MOL1         0.1025
      14    C4      19.165507   21.408238   20.897978 C.3        1 MOL1        -0.2258
      15    H10     18.356104   22.102977   21.157309 H          1 MOL1         0.1036
      16    H11     19.094851   21.195847   19.823220 H          1 MOL1         0.1036
      17    H12     20.119377   21.919148   21.083209 H          1 MOL1         0.1036
@<TRIPOS>BOND
    1     1     2    1
    2     1     3    1
    3     1     4    1
    4     1     5    1
    5     5     6    1
    6     5     7    1
    7     5     8    1
    8     8     9    1
    9     8    10    1
   10     8    11    1
   11    11    12    1
   12    11    13    1
   13    11    14    1
   14    14    15    1
   15    14    16    1
   16    14    17    1
@<TRIPOS>SUBSTRUCTURE
       1 MOL1            1 RESIDUE      1      MOL     
@<SCITEGIC>MOL_PROPERTY
VConf Rank
SciTegic.value.IntegerValue
943

@<SCITEGIC>MOL_PROPERTY
Conf_Id
SciTegic.value.IntegerValue
7

@<SCITEGIC>MOL_PROPERTY
Delta U+W
SciTegic.value.DoubleValue
0.000

@<SCITEGIC>MOL_PROPERTY
U+W
SciTegic.value.DoubleValue
-15.865

@<SCITEGIC>MOL_PROPERTY
Grad RMS
SciTegic.value.DoubleValue
0.000000

@<SCITEGIC>MOL_PROPERTY
U
SciTegic.value.DoubleValue
44.664

@<SCITEGIC>MOL_PROPERTY
W
SciTegic.value.DoubleValue
-60.529

@<SCITEGIC>MOL_PROPERTY
W(PB)
SciTegic.value.DoubleValue
-62.309

@<SCITEGIC>MOL_PROPERTY
W(SA)
SciTegic.value.DoubleValue
1.780

@<SCITEGIC>MOL_PROPERTY
Valence
SciTegic.value.DoubleValue
0.872

@<SCITEGIC>MOL_PROPERTY
Coulomb
SciTegic.value.DoubleValue
43.648

@<SCITEGIC>MOL_PROPERTY
VdW
SciTegic.value.DoubleValue
0.144

@<SCITEGIC>MOL_PROPERTY
VdW6
SciTegic.value.DoubleValue
-2.370

@<SCITEGIC>MOL_PROPERTY
VdW12
SciTegic.value.DoubleValue
2.515

@<SCITEGIC>MOL_PROPERTY
Bond
SciTegic.value.DoubleValue
0.080

@<SCITEGIC>MOL_PROPERTY
Angle
SciTegic.value.DoubleValue
0.376

@<SCITEGIC>MOL_PROPERTY
Pdih
SciTegic.value.DoubleValue
0.416

@<SCITEGIC>MOL_PROPERTY
Idih
SciTegic.value.DoubleValue
0.000

@<SCITEGIC>MOL_PROPERTY
Tether
SciTegic.value.DoubleValue
0.000

@<TRIPOS>MOLECULE
guest-1_confgen4.mol2 : confsearch ligand conformer 944
          17          16           1
SMALL
USER_CHARGES
 
@<TRIPOS>ATOM
       1    N1      21.608598   17.402898   21.991971 N.4        1 MOL1        -0.5891
       2    H1      22.183584   17.681025   22.793023 H          1 MOL1         0.3726
       3    H2      22.165861   17.571345   21.148923 H          1 MOL1         0.3726
       4    H3      21.474865   16.388910   22.061173 H          1 MOL1         0.3726
       5    C1      20.287282   18.144672   21.956604 C.3        1 MOL1         0.0314
       6    H4      19.735728   17.896145   22.867335 H          1 MOL1         0.0999
       7    H5      19.717956   17.775881   21.099457 H          1 MOL1         0.0999
       8    C2      20.452088   19.673046   21.852347 C.3        1 MOL1        -0.1308
       9    H6      21.058903   20.027879   22.695998 H          1 MOL1         0.1025
      10    H7      21.007513   19.922540   20.938485 H          1 MOL1         0.1025
      11    C3      19.098170   20.420636   21.856726 C.3        1 MOL1        -0.1243
      12    H8      19.288179   21.503158   21.861657 H          1 MOL1         0.1025
      13    H9      18.555323   20.198208   22.786256 H          1 MOL1         0.1025
      14    C4      18.210482   20.070177   20.640525 C.3        1 MOL1        -0.2258
      15    H10     18.732579   20.277770   19.697421 H          1 MOL1         0.1036
      16    H11     17.289346   20.667164   20.651564 H          1 MOL1         0.1036
      17    H12     17.918926   19.012319   20.645337 H          1 MOL1         0.1036
@<TRIPOS>BOND
    1     1     2    1
    2     1     3    1
    3     1     4    1
    4     1     5    1
    5     5     6    1
    6     5     7    1
    7     5     8    1
    8     8     9    1
    9     8    10    1
   10     8    11    1
   11    11    12    1
   12    11    13    1
   13    11    14    1
   14    14    15    1
   15    14    16    1
   16    14    17    1
@<TRIPOS>SUBSTRUCTURE
       1 MOL1            1 RESIDUE      1      MOL     
@<SCITEGIC>MOL_PROPERTY
VConf Rank
SciTegic.value.IntegerValue
944

@<SCITEGIC>MOL_PROPERTY
Conf_Id
SciTegic.value.IntegerValue
36

@<SCITEGIC>MOL_PROPERTY
Delta U+W
SciTegic.value.DoubleValue
0.275

@<SCITEGIC>MOL_PROPERTY
U+W
SciTegic.value.DoubleValue
-15.590

@<SCITEGIC>MOL_PROPERTY
Grad RMS
SciTegic.value.DoubleValue
0.000000

@<SCITEGIC>MOL_PROPERTY
U
SciTegic.value.DoubleValue
45.174

@<SCITEGIC>MOL_PROPERTY
W
SciTegic.value.DoubleValue
-60.765

@<SCITEGIC>MOL_PROPERTY
W(PB)
SciTegic.value.DoubleValue
-62.518

@<SCITEGIC>MOL_PROPERTY
W(SA)
SciTegic.value.DoubleValue
1.754

@<SCITEGIC>MOL_PROPERTY
Valence
SciTegic.value.DoubleValue
1.161

@<SCITEGIC>MOL_PROPERTY
Coulomb
SciTegic.value.DoubleValue
43.789

@<SCITEGIC>MOL_PROPERTY
VdW
SciTegic.value.DoubleValue
0.224

@<SCITEGIC>MOL_PROPERTY
VdW6
SciTegic.value.DoubleValue
-2.897

@<SCITEGIC>MOL_PROPERTY
VdW12
SciTegic.value.DoubleValue
3.121

@<SCITEGIC>MOL_PROPERTY
Bond
SciTegic.value.DoubleValue
0.100

@<SCITEGIC>MOL_PROPERTY
Angle
SciTegic.value.DoubleValue
0.500

@<SCITEGIC>MOL_PROPERTY
Pdih
SciTegic.value.DoubleValue
0.561

@<SCITEGIC>MOL_PROPERTY
Idih
SciTegic.value.DoubleValue
0.000

@<SCITEGIC>MOL_PROPERTY
Tether
SciTegic.value.DoubleValue
0.000

@<TRIPOS>MOLECULE
guest-1_confgen4.mol2 : confsearch ligand conformer 945
          17          16           1
SMALL
USER_CHARGES
 
@<TRIPOS>ATOM
       1    N1      18.549205   18.799096   20.380950 N.4        1 MOL1        -0.5891
       2    H1      18.706899   17.932117   20.900878 H          1 MOL1         0.3726
       3    H2      18.991589   18.685241   19.463991 H          1 MOL1         0.3726
       4    H3      17.540112   18.874153   20.216876 H          1 MOL1         0.3726
       5    C1      19.091531   20.005867   21.122312 C.3        1 MOL1         0.0314
       6    H4      18.537939   20.116979   22.058523 H          1 MOL1         0.0999
       7    H5      18.884813   20.881960   20.501614 H          1 MOL1         0.0999
       8    C2      20.605464   19.943005   21.415004 C.3        1 MOL1        -0.1308
       9    H6      21.145133   19.586965   20.527467 H          1 MOL1         0.1025
      10    H7      20.955787   20.969095   21.588960 H          1 MOL1         0.1025
      11    C3      20.985784   19.093099   22.654246 C.3        1 MOL1        -0.1243
      12    H8      20.488822   19.498276   23.546928 H          1 MOL1         0.1025
      13    H9      22.064958   19.202949   22.831178 H          1 MOL1         0.1025
      14    C4      20.659525   17.588162   22.521574 C.3        1 MOL1        -0.2258
      15    H10     19.578884   17.406554   22.551712 H          1 MOL1         0.1036
      16    H11     21.103734   17.027660   23.354444 H          1 MOL1         0.1036
      17    H12     21.063021   17.173538   21.588604 H          1 MOL1         0.1036
@<TRIPOS>BOND
    1     1     2    1
    2     1     3    1
    3     1     4    1
    4     1     5    1
    5     5     6    1
    6     5     7    1
    7     5     8    1
    8     8     9    1
    9     8    10    1
   10     8    11    1
   11    11    12    1
   12    11    13    1
   13    11    14    1
   14    14    15    1
   15    14    16    1
   16    14    17    1
@<TRIPOS>SUBSTRUCTURE
       1 MOL1            1 RESIDUE      1      MOL     
@<SCITEGIC>MOL_PROPERTY
VConf Rank
SciTegic.value.IntegerValue
945

@<SCITEGIC>MOL_PROPERTY
Conf_Id
SciTegic.value.IntegerValue
19

@<SCITEGIC>MOL_PROPERTY
Delta U+W
SciTegic.value.DoubleValue
2.662

@<SCITEGIC>MOL_PROPERTY
U+W
SciTegic.value.DoubleValue
-13.203

@<SCITEGIC>MOL_PROPERTY
Grad RMS
SciTegic.value.DoubleValue
0.000000

@<SCITEGIC>MOL_PROPERTY
U
SciTegic.value.DoubleValue
47.423

@<SCITEGIC>MOL_PROPERTY
W
SciTegic.value.DoubleValue
-60.626

@<SCITEGIC>MOL_PROPERTY
W(PB)
SciTegic.value.DoubleValue
-62.328

@<SCITEGIC>MOL_PROPERTY
W(SA)
SciTegic.value.DoubleValue
1.702

@<SCITEGIC>MOL_PROPERTY
Valence
SciTegic.value.DoubleValue
2.414

@<SCITEGIC>MOL_PROPERTY
Coulomb
SciTegic.value.DoubleValue
44.831

@<SCITEGIC>MOL_PROPERTY
VdW
SciTegic.value.DoubleValue
0.178

@<SCITEGIC>MOL_PROPERTY
VdW6
SciTegic.value.DoubleValue
-3.743

@<SCITEGIC>MOL_PROPERTY
VdW12
SciTegic.value.DoubleValue
3.921

@<SCITEGIC>MOL_PROPERTY
Bond
SciTegic.value.DoubleValue
0.138

@<SCITEGIC>MOL_PROPERTY
Angle
SciTegic.value.DoubleValue
0.941

@<SCITEGIC>MOL_PROPERTY
Pdih
SciTegic.value.DoubleValue
1.335

@<SCITEGIC>MOL_PROPERTY
Idih
SciTegic.value.DoubleValue
0.000

@<SCITEGIC>MOL_PROPERTY
Tether
SciTegic.value.DoubleValue
0.000

@<TRIPOS>MOLECULE
guest-1_confgen4.mol2 : confsearch ligand conformer 946
          17          16           1
SMALL
USER_CHARGES
 
@<TRIPOS>ATOM
       1    N1      19.194729   17.334335   21.563552 N.4        1 MOL1        -0.5891
       2    H1      18.665138   16.614632   22.065931 H          1 MOL1         0.3726
       3    H2      19.624060   16.876387   20.753960 H          1 MOL1         0.3726
       4    H3      18.517337   18.010797   21.202467 H          1 MOL1         0.3726
       5    C1      20.230794   17.995649   22.451961 C.3        1 MOL1         0.0314
       6    H4      20.910697   17.209083   22.790464 H          1 MOL1         0.0999
       7    H5      19.725278   18.406161   23.330161 H          1 MOL1         0.0999
       8    C2      21.049847   19.102839   21.755618 C.3        1 MOL1        -0.1308
       9    H6      21.980543   19.237702   22.322594 H          1 MOL1         0.1025
      10    H7      21.353015   18.771820   20.753498 H          1 MOL1         0.1025
      11    C3      20.336560   20.476778   21.676763 C.3        1 MOL1        -0.1243
      12    H8      21.042805   21.210026   21.262572 H          1 MOL1         0.1025
      13    H9      20.095124   20.826560   22.690362 H          1 MOL1         0.1025
      14    C4      19.056164   20.483335   20.811071 C.3        1 MOL1        -0.2258
      15    H10     19.242927   20.050048   19.819843 H          1 MOL1         0.1036
      16    H11     18.701979   21.511877   20.663385 H          1 MOL1         0.1036
      17    H12     18.242215   19.928819   21.292401 H          1 MOL1         0.1036
@<TRIPOS>BOND
    1     1     2    1
    2     1     3    1
    3     1     4    1
    4     1     5    1
    5     5     6    1
    6     5     7    1
    7     5     8    1
    8     8     9    1
    9     8    10    1
   10     8    11    1
   11    11    12    1
   12    11    13    1
   13    11    14    1
   14    14    15    1
   15    14    16    1
   16    14    17    1
@<TRIPOS>SUBSTRUCTURE
       1 MOL1            1 RESIDUE      1      MOL     
@<SCITEGIC>MOL_PROPERTY
VConf Rank
SciTegic.value.IntegerValue
946

@<SCITEGIC>MOL_PROPERTY
Conf_Id
SciTegic.value.IntegerValue
44

@<SCITEGIC>MOL_PROPERTY
Delta U+W
SciTegic.value.DoubleValue
2.712

@<SCITEGIC>MOL_PROPERTY
U+W
SciTegic.value.DoubleValue
-13.153

@<SCITEGIC>MOL_PROPERTY
Grad RMS
SciTegic.value.DoubleValue
0.000000

@<SCITEGIC>MOL_PROPERTY
U
SciTegic.value.DoubleValue
47.423

@<SCITEGIC>MOL_PROPERTY
W
SciTegic.value.DoubleValue
-60.576

@<SCITEGIC>MOL_PROPERTY
W(PB)
SciTegic.value.DoubleValue
-62.262

@<SCITEGIC>MOL_PROPERTY
W(SA)
SciTegic.value.DoubleValue
1.687

@<SCITEGIC>MOL_PROPERTY
Valence
SciTegic.value.DoubleValue
2.414

@<SCITEGIC>MOL_PROPERTY
Coulomb
SciTegic.value.DoubleValue
44.831

@<SCITEGIC>MOL_PROPERTY
VdW
SciTegic.value.DoubleValue
0.178

@<SCITEGIC>MOL_PROPERTY
VdW6
SciTegic.value.DoubleValue
-3.743

@<SCITEGIC>MOL_PROPERTY
VdW12
SciTegic.value.DoubleValue
3.922

@<SCITEGIC>MOL_PROPERTY
Bond
SciTegic.value.DoubleValue
0.138

@<SCITEGIC>MOL_PROPERTY
Angle
SciTegic.value.DoubleValue
0.941

@<SCITEGIC>MOL_PROPERTY
Pdih
SciTegic.value.DoubleValue
1.335

@<SCITEGIC>MOL_PROPERTY
Idih
SciTegic.value.DoubleValue
0.000

@<SCITEGIC>MOL_PROPERTY
Tether
SciTegic.value.DoubleValue
0.000

@<TRIPOS>MOLECULE
guest-1_confgen4.mol2 : confsearch ligand conformer 947
          17          16           1
SMALL
USER_CHARGES
 
@<TRIPOS>ATOM
       1    N1      20.714633   17.454314   22.494652 N.4        1 MOL1        -0.5891
       2    H1      21.042084   17.447814   21.524508 H          1 MOL1         0.3726
       3    H2      20.034037   16.694615   22.589658 H          1 MOL1         0.3726
       4    H3      21.517541   17.209892   23.083095 H          1 MOL1         0.3726
       5    C1      20.121802   18.796344   22.878534 C.3        1 MOL1         0.0314
       6    H4      20.904831   19.553061   22.783409 H          1 MOL1         0.0999
       7    H5      19.829944   18.742646   23.930900 H          1 MOL1         0.0999
       8    C2      18.899499   19.202937   22.029665 C.3        1 MOL1        -0.1308
       9    H6      18.103812   18.458177   22.163693 H          1 MOL1         0.1025
      10    H7      18.500926   20.149346   22.418579 H          1 MOL1         0.1025
      11    C3      19.205916   19.361687   20.519545 C.3        1 MOL1        -0.1243
      12    H8      18.278673   19.636430   19.997393 H          1 MOL1         0.1025
      13    H9      19.518946   18.398374   20.094464 H          1 MOL1         0.1025
      14    C4      20.281924   20.433052   20.229404 C.3        1 MOL1        -0.2258
      15    H10     19.991038   21.406903   20.644213 H          1 MOL1         0.1036
      16    H11     20.419214   20.557732   19.147473 H          1 MOL1         0.1036
      17    H12     21.253822   20.155441   20.656364 H          1 MOL1         0.1036
@<TRIPOS>BOND
    1     1     2    1
    2     1     3    1
    3     1     4    1
    4     1     5    1
    5     5     6    1
    6     5     7    1
    7     5     8    1
    8     8     9    1
    9     8    10    1
   10     8    11    1
   11    11    12    1
   12    11    13    1
   13    11    14    1
   14    14    15    1
   15    14    16    1
   16    14    17    1
@<TRIPOS>SUBSTRUCTURE
       1 MOL1            1 RESIDUE      1      MOL     
@<SCITEGIC>MOL_PROPERTY
VConf Rank
SciTegic.value.IntegerValue
947

@<SCITEGIC>MOL_PROPERTY
Conf_Id
SciTegic.value.IntegerValue
1

@<SCITEGIC>MOL_PROPERTY
Delta U+W
SciTegic.value.DoubleValue
0.685

@<SCITEGIC>MOL_PROPERTY
U+W
SciTegic.value.DoubleValue
-15.179

@<SCITEGIC>MOL_PROPERTY
Grad RMS
SciTegic.value.DoubleValue
0.000000

@<SCITEGIC>MOL_PROPERTY
U
SciTegic.value.DoubleValue
45.697

@<SCITEGIC>MOL_PROPERTY
W
SciTegic.value.DoubleValue
-60.876

@<SCITEGIC>MOL_PROPERTY
W(PB)
SciTegic.value.DoubleValue
-62.586

@<SCITEGIC>MOL_PROPERTY
W(SA)
SciTegic.value.DoubleValue
1.710

@<SCITEGIC>MOL_PROPERTY
Valence
SciTegic.value.DoubleValue
1.263

@<SCITEGIC>MOL_PROPERTY
Coulomb
SciTegic.value.DoubleValue
44.179

@<SCITEGIC>MOL_PROPERTY
VdW
SciTegic.value.DoubleValue
0.255

@<SCITEGIC>MOL_PROPERTY
VdW6
SciTegic.value.DoubleValue
-3.552

@<SCITEGIC>MOL_PROPERTY
VdW12
SciTegic.value.DoubleValue
3.807

@<SCITEGIC>MOL_PROPERTY
Bond
SciTegic.value.DoubleValue
0.125

@<SCITEGIC>MOL_PROPERTY
Angle
SciTegic.value.DoubleValue
0.616

@<SCITEGIC>MOL_PROPERTY
Pdih
SciTegic.value.DoubleValue
0.521

@<SCITEGIC>MOL_PROPERTY
Idih
SciTegic.value.DoubleValue
0.000

@<SCITEGIC>MOL_PROPERTY
Tether
SciTegic.value.DoubleValue
0.000

@<TRIPOS>MOLECULE
guest-1_confgen4.mol2 : confsearch ligand conformer 948
          17          16           1
SMALL
USER_CHARGES
 
@<TRIPOS>ATOM
       1    N1      18.257820   18.253002   20.850798 N.4        1 MOL1        -0.5891
       2    H1      17.738942   18.940172   20.295874 H          1 MOL1         0.3726
       3    H2      18.076768   18.461308   21.836839 H          1 MOL1         0.3726
       4    H3      17.840087   17.337281   20.656835 H          1 MOL1         0.3726
       5    C1      19.740982   18.274595   20.535166 C.3        1 MOL1         0.0314
       6    H4      19.861091   18.008228   19.481524 H          1 MOL1         0.0999
       7    H5      20.227278   17.502029   21.136384 H          1 MOL1         0.0999
       8    C2      20.413645   19.637973   20.797165 C.3        1 MOL1        -0.1308
       9    H6      21.463687   19.577983   20.481543 H          1 MOL1         0.1025
      10    H7      19.945733   20.399263   20.159009 H          1 MOL1         0.1025
      11    C3      20.351616   20.097417   22.275212 C.3        1 MOL1        -0.1243
      12    H8      19.307323   20.251035   22.579362 H          1 MOL1         0.1025
      13    H9      20.839889   21.078251   22.361578 H          1 MOL1         0.1025
      14    C4      21.036504   19.108328   23.246000 C.3        1 MOL1        -0.2258
      15    H10     21.026341   19.504318   24.269747 H          1 MOL1         0.1036
      16    H11     22.083576   18.938977   22.963109 H          1 MOL1         0.1036
      17    H12     20.524706   18.137880   23.261596 H          1 MOL1         0.1036
@<TRIPOS>BOND
    1     1     2    1
    2     1     3    1
    3     1     4    1
    4     1     5    1
    5     5     6    1
    6     5     7    1
    7     5     8    1
    8     8     9    1
    9     8    10    1
   10     8    11    1
   11    11    12    1
   12    11    13    1
   13    11    14    1
   14    14    15    1
   15    14    16    1
   16    14    17    1
@<TRIPOS>SUBSTRUCTURE
       1 MOL1            1 RESIDUE      1      MOL     
@<SCITEGIC>MOL_PROPERTY
VConf Rank
SciTegic.value.IntegerValue
948

@<SCITEGIC>MOL_PROPERTY
Conf_Id
SciTegic.value.IntegerValue
43

@<SCITEGIC>MOL_PROPERTY
Delta U+W
SciTegic.value.DoubleValue
0.642

@<SCITEGIC>MOL_PROPERTY
U+W
SciTegic.value.DoubleValue
-15.222

@<SCITEGIC>MOL_PROPERTY
Grad RMS
SciTegic.value.DoubleValue
0.000000

@<SCITEGIC>MOL_PROPERTY
U
SciTegic.value.DoubleValue
45.697

@<SCITEGIC>MOL_PROPERTY
W
SciTegic.value.DoubleValue
-60.919

@<SCITEGIC>MOL_PROPERTY
W(PB)
SciTegic.value.DoubleValue
-62.631

@<SCITEGIC>MOL_PROPERTY
W(SA)
SciTegic.value.DoubleValue
1.712

@<SCITEGIC>MOL_PROPERTY
Valence
SciTegic.value.DoubleValue
1.262

@<SCITEGIC>MOL_PROPERTY
Coulomb
SciTegic.value.DoubleValue
44.179

@<SCITEGIC>MOL_PROPERTY
VdW
SciTegic.value.DoubleValue
0.255

@<SCITEGIC>MOL_PROPERTY
VdW6
SciTegic.value.DoubleValue
-3.552

@<SCITEGIC>MOL_PROPERTY
VdW12
SciTegic.value.DoubleValue
3.807

@<SCITEGIC>MOL_PROPERTY
Bond
SciTegic.value.DoubleValue
0.125

@<SCITEGIC>MOL_PROPERTY
Angle
SciTegic.value.DoubleValue
0.616

@<SCITEGIC>MOL_PROPERTY
Pdih
SciTegic.value.DoubleValue
0.521

@<SCITEGIC>MOL_PROPERTY
Idih
SciTegic.value.DoubleValue
0.000

@<SCITEGIC>MOL_PROPERTY
Tether
SciTegic.value.DoubleValue
0.000

@<TRIPOS>MOLECULE
guest-1_confgen4.mol2 : confsearch ligand conformer 949
          17          16           1
SMALL
USER_CHARGES
 
@<TRIPOS>ATOM
       1    N1      19.645861   18.010593   19.281236 N.4        1 MOL1        -0.5891
       2    H1      19.289559   18.844711   18.804798 H          1 MOL1         0.3726
       3    H2      18.836354   17.424919   19.507911 H          1 MOL1         0.3726
       4    H3      20.203261   17.492511   18.594355 H          1 MOL1         0.3726
       5    C1      20.455111   18.362547   20.513551 C.3        1 MOL1         0.0314
       6    H4      21.314425   18.958493   20.194253 H          1 MOL1         0.0999
       7    H5      20.827124   17.431754   20.950306 H          1 MOL1         0.0999
       8    C2      19.647663   19.142126   21.567375 C.3        1 MOL1        -0.1308
       9    H6      19.262747   20.068610   21.120769 H          1 MOL1         0.1025
      10    H7      18.777215   18.547071   21.874328 H          1 MOL1         0.1025
      11    C3      20.508079   19.480333   22.804639 C.3        1 MOL1        -0.1243
      12    H8      21.381332   20.073169   22.497555 H          1 MOL1         0.1025
      13    H9      20.896333   18.553497   23.250239 H          1 MOL1         0.1025
      14    C4      19.704720   20.262488   23.866149 C.3        1 MOL1        -0.2258
      15    H10     20.333214   20.492874   24.736188 H          1 MOL1         0.1036
      16    H11     18.843315   19.680154   24.218392 H          1 MOL1         0.1036
      17    H12     19.332093   21.211796   23.459738 H          1 MOL1         0.1036
@<TRIPOS>BOND
    1     1     2    1
    2     1     3    1
    3     1     4    1
    4     1     5    1
    5     5     6    1
    6     5     7    1
    7     5     8    1
    8     8     9    1
    9     8    10    1
   10     8    11    1
   11    11    12    1
   12    11    13    1
   13    11    14    1
   14    14    15    1
   15    14    16    1
   16    14    17    1
@<TRIPOS>SUBSTRUCTURE
       1 MOL1            1 RESIDUE      1      MOL     
@<SCITEGIC>MOL_PROPERTY
VConf Rank
SciTegic.value.IntegerValue
949

@<SCITEGIC>MOL_PROPERTY
Conf_Id
SciTegic.value.IntegerValue
7

@<SCITEGIC>MOL_PROPERTY
Delta U+W
SciTegic.value.DoubleValue
0.000

@<SCITEGIC>MOL_PROPERTY
U+W
SciTegic.value.DoubleValue
-15.865

@<SCITEGIC>MOL_PROPERTY
Grad RMS
SciTegic.value.DoubleValue
0.000000

@<SCITEGIC>MOL_PROPERTY
U
SciTegic.value.DoubleValue
44.664

@<SCITEGIC>MOL_PROPERTY
W
SciTegic.value.DoubleValue
-60.529

@<SCITEGIC>MOL_PROPERTY
W(PB)
SciTegic.value.DoubleValue
-62.309

@<SCITEGIC>MOL_PROPERTY
W(SA)
SciTegic.value.DoubleValue
1.780

@<SCITEGIC>MOL_PROPERTY
Valence
SciTegic.value.DoubleValue
0.872

@<SCITEGIC>MOL_PROPERTY
Coulomb
SciTegic.value.DoubleValue
43.648

@<SCITEGIC>MOL_PROPERTY
VdW
SciTegic.value.DoubleValue
0.144

@<SCITEGIC>MOL_PROPERTY
VdW6
SciTegic.value.DoubleValue
-2.370

@<SCITEGIC>MOL_PROPERTY
VdW12
SciTegic.value.DoubleValue
2.515

@<SCITEGIC>MOL_PROPERTY
Bond
SciTegic.value.DoubleValue
0.080

@<SCITEGIC>MOL_PROPERTY
Angle
SciTegic.value.DoubleValue
0.376

@<SCITEGIC>MOL_PROPERTY
Pdih
SciTegic.value.DoubleValue
0.416

@<SCITEGIC>MOL_PROPERTY
Idih
SciTegic.value.DoubleValue
0.000

@<SCITEGIC>MOL_PROPERTY
Tether
SciTegic.value.DoubleValue
0.000

@<TRIPOS>MOLECULE
guest-1_confgen4.mol2 : confsearch ligand conformer 950
          17          16           1
SMALL
USER_CHARGES
 
@<TRIPOS>ATOM
       1    N1      18.588215   17.852608   20.043935 N.4        1 MOL1        -0.5891
       2    H1      19.099958   17.785345   19.158925 H          1 MOL1         0.3726
       3    H2      17.847622   18.547936   19.910936 H          1 MOL1         0.3726
       4    H3      18.124682   16.949621   20.187443 H          1 MOL1         0.3726
       5    C1      19.499823   18.208572   21.201353 C.3        1 MOL1         0.0314
       6    H4      20.242709   17.412900   21.303500 H          1 MOL1         0.0999
       7    H5      18.894281   18.231247   22.111102 H          1 MOL1         0.0999
       8    C2      20.213085   19.561925   21.017905 C.3        1 MOL1        -0.1308
       9    H6      20.786160   19.542574   20.081375 H          1 MOL1         0.1025
      10    H7      19.466927   20.360839   20.913635 H          1 MOL1         0.1025
      11    C3      21.169804   19.895166   22.186513 C.3        1 MOL1        -0.1243
      12    H8      21.703409   20.827977   21.956055 H          1 MOL1         0.1025
      13    H9      21.937534   19.113108   22.271117 H          1 MOL1         0.1025
      14    C4      20.438813   20.053628   23.539472 C.3        1 MOL1        -0.2258
      15    H10     19.661107   20.826150   23.480254 H          1 MOL1         0.1036
      16    H11     21.144988   20.349260   24.326190 H          1 MOL1         0.1036
      17    H12     19.966266   19.114917   23.855089 H          1 MOL1         0.1036
@<TRIPOS>BOND
    1     1     2    1
    2     1     3    1
    3     1     4    1
    4     1     5    1
    5     5     6    1
    6     5     7    1
    7     5     8    1
    8     8     9    1
    9     8    10    1
   10     8    11    1
   11    11    12    1
   12    11    13    1
   13    11    14    1
   14    14    15    1
   15    14    16    1
   16    14    17    1
@<TRIPOS>SUBSTRUCTURE
       1 MOL1            1 RESIDUE      1      MOL     
@<SCITEGIC>MOL_PROPERTY
VConf Rank
SciTegic.value.IntegerValue
950

@<SCITEGIC>MOL_PROPERTY
Conf_Id
SciTegic.value.IntegerValue
36

@<SCITEGIC>MOL_PROPERTY
Delta U+W
SciTegic.value.DoubleValue
0.275

@<SCITEGIC>MOL_PROPERTY
U+W
SciTegic.value.DoubleValue
-15.590

@<SCITEGIC>MOL_PROPERTY
Grad RMS
SciTegic.value.DoubleValue
0.000000

@<SCITEGIC>MOL_PROPERTY
U
SciTegic.value.DoubleValue
45.174

@<SCITEGIC>MOL_PROPERTY
W
SciTegic.value.DoubleValue
-60.765

@<SCITEGIC>MOL_PROPERTY
W(PB)
SciTegic.value.DoubleValue
-62.518

@<SCITEGIC>MOL_PROPERTY
W(SA)
SciTegic.value.DoubleValue
1.754

@<SCITEGIC>MOL_PROPERTY
Valence
SciTegic.value.DoubleValue
1.161

@<SCITEGIC>MOL_PROPERTY
Coulomb
SciTegic.value.DoubleValue
43.789

@<SCITEGIC>MOL_PROPERTY
VdW
SciTegic.value.DoubleValue
0.224

@<SCITEGIC>MOL_PROPERTY
VdW6
SciTegic.value.DoubleValue
-2.897

@<SCITEGIC>MOL_PROPERTY
VdW12
SciTegic.value.DoubleValue
3.121

@<SCITEGIC>MOL_PROPERTY
Bond
SciTegic.value.DoubleValue
0.100

@<SCITEGIC>MOL_PROPERTY
Angle
SciTegic.value.DoubleValue
0.500

@<SCITEGIC>MOL_PROPERTY
Pdih
SciTegic.value.DoubleValue
0.561

@<SCITEGIC>MOL_PROPERTY
Idih
SciTegic.value.DoubleValue
0.000

@<SCITEGIC>MOL_PROPERTY
Tether
SciTegic.value.DoubleValue
0.000

@<TRIPOS>MOLECULE
guest-1_confgen4.mol2 : confsearch ligand conformer 951
          17          16           1
SMALL
USER_CHARGES
 
@<TRIPOS>ATOM
       1    N1      20.179135   20.724004   20.984142 N.4        1 MOL1        -0.5891
       2    H1      19.239195   20.592572   21.366350 H          1 MOL1         0.3726
       3    H2      20.099094   20.675364   19.963992 H          1 MOL1         0.3726
       4    H3      20.468334   21.680137   21.214353 H          1 MOL1         0.3726
       5    C1      21.154055   19.694626   21.522606 C.3        1 MOL1         0.0314
       6    H4      21.250514   19.837840   22.602183 H          1 MOL1         0.0999
       7    H5      22.125141   19.904315   21.065924 H          1 MOL1         0.0999
       8    C2      20.762663   18.232292   21.222596 C.3        1 MOL1        -0.1308
       9    H6      20.424447   18.139925   20.182016 H          1 MOL1         0.1025
      10    H7      21.670986   17.620013   21.299483 H          1 MOL1         0.1025
      11    C3      19.704948   17.639017   22.187981 C.3        1 MOL1        -0.1243
      12    H8      20.082046   17.679691   23.219564 H          1 MOL1         0.1025
      13    H9      19.580436   16.572831   21.951900 H          1 MOL1         0.1025
      14    C4      18.320886   18.323405   22.118213 C.3        1 MOL1        -0.2258
      15    H10     18.349596   19.333457   22.543238 H          1 MOL1         0.1036
      16    H11     17.583917   17.751282   22.696752 H          1 MOL1         0.1036
      17    H12     17.957806   18.383947   21.083969 H          1 MOL1         0.1036
@<TRIPOS>BOND
    1     1     2    1
    2     1     3    1
    3     1     4    1
    4     1     5    1
    5     5     6    1
    6     5     7    1
    7     5     8    1
    8     8     9    1
    9     8    10    1
   10     8    11    1
   11    11    12    1
   12    11    13    1
   13    11    14    1
   14    14    15    1
   15    14    16    1
   16    14    17    1
@<TRIPOS>SUBSTRUCTURE
       1 MOL1            1 RESIDUE      1      MOL     
@<SCITEGIC>MOL_PROPERTY
VConf Rank
SciTegic.value.IntegerValue
951

@<SCITEGIC>MOL_PROPERTY
Conf_Id
SciTegic.value.IntegerValue
19

@<SCITEGIC>MOL_PROPERTY
Delta U+W
SciTegic.value.DoubleValue
2.662

@<SCITEGIC>MOL_PROPERTY
U+W
SciTegic.value.DoubleValue
-13.203

@<SCITEGIC>MOL_PROPERTY
Grad RMS
SciTegic.value.DoubleValue
0.000000

@<SCITEGIC>MOL_PROPERTY
U
SciTegic.value.DoubleValue
47.423

@<SCITEGIC>MOL_PROPERTY
W
SciTegic.value.DoubleValue
-60.626

@<SCITEGIC>MOL_PROPERTY
W(PB)
SciTegic.value.DoubleValue
-62.328

@<SCITEGIC>MOL_PROPERTY
W(SA)
SciTegic.value.DoubleValue
1.702

@<SCITEGIC>MOL_PROPERTY
Valence
SciTegic.value.DoubleValue
2.414

@<SCITEGIC>MOL_PROPERTY
Coulomb
SciTegic.value.DoubleValue
44.831

@<SCITEGIC>MOL_PROPERTY
VdW
SciTegic.value.DoubleValue
0.178

@<SCITEGIC>MOL_PROPERTY
VdW6
SciTegic.value.DoubleValue
-3.743

@<SCITEGIC>MOL_PROPERTY
VdW12
SciTegic.value.DoubleValue
3.921

@<SCITEGIC>MOL_PROPERTY
Bond
SciTegic.value.DoubleValue
0.138

@<SCITEGIC>MOL_PROPERTY
Angle
SciTegic.value.DoubleValue
0.941

@<SCITEGIC>MOL_PROPERTY
Pdih
SciTegic.value.DoubleValue
1.335

@<SCITEGIC>MOL_PROPERTY
Idih
SciTegic.value.DoubleValue
0.000

@<SCITEGIC>MOL_PROPERTY
Tether
SciTegic.value.DoubleValue
0.000

@<TRIPOS>MOLECULE
guest-1_confgen4.mol2 : confsearch ligand conformer 952
          17          16           1
SMALL
USER_CHARGES
 
@<TRIPOS>ATOM
       1    N1      21.632585   19.449077   21.115353 N.4        1 MOL1        -0.5891
       2    H1      22.475290   19.994974   21.321919 H          1 MOL1         0.3726
       3    H2      21.770465   19.027923   20.191720 H          1 MOL1         0.3726
       4    H3      21.595370   18.683211   21.792781 H          1 MOL1         0.3726
       5    C1      20.380751   20.303833   21.163744 C.3        1 MOL1         0.0314
       6    H4      20.501366   21.090332   20.413806 H          1 MOL1         0.0999
       7    H5      20.322122   20.779989   22.146158 H          1 MOL1         0.0999
       8    C2      19.074719   19.532894   20.878181 C.3        1 MOL1        -0.1308
       9    H6      18.316999   20.262745   20.563499 H          1 MOL1         0.1025
      10    H7      19.216090   18.858119   20.023534 H          1 MOL1         0.1025
      11    C3      18.509831   18.753264   22.092999 C.3        1 MOL1        -0.1243
      12    H8      17.534119   18.333100   21.811149 H          1 MOL1         0.1025
      13    H9      18.313119   19.449823   22.920122 H          1 MOL1         0.1025
      14    C4      19.415014   17.604022   22.591762 C.3        1 MOL1        -0.2258
      15    H10     19.708286   16.941102   21.767334 H          1 MOL1         0.1036
      16    H11     18.883016   16.995770   23.334840 H          1 MOL1         0.1036
      17    H12     20.320069   17.986668   23.077702 H          1 MOL1         0.1036
@<TRIPOS>BOND
    1     1     2    1
    2     1     3    1
    3     1     4    1
    4     1     5    1
    5     5     6    1
    6     5     7    1
    7     5     8    1
    8     8     9    1
    9     8    10    1
   10     8    11    1
   11    11    12    1
   12    11    13    1
   13    11    14    1
   14    14    15    1
   15    14    16    1
   16    14    17    1
@<TRIPOS>SUBSTRUCTURE
       1 MOL1            1 RESIDUE      1      MOL     
@<SCITEGIC>MOL_PROPERTY
VConf Rank
SciTegic.value.IntegerValue
952

@<SCITEGIC>MOL_PROPERTY
Conf_Id
SciTegic.value.IntegerValue
44

@<SCITEGIC>MOL_PROPERTY
Delta U+W
SciTegic.value.DoubleValue
2.712

@<SCITEGIC>MOL_PROPERTY
U+W
SciTegic.value.DoubleValue
-13.153

@<SCITEGIC>MOL_PROPERTY
Grad RMS
SciTegic.value.DoubleValue
0.000000

@<SCITEGIC>MOL_PROPERTY
U
SciTegic.value.DoubleValue
47.423

@<SCITEGIC>MOL_PROPERTY
W
SciTegic.value.DoubleValue
-60.576

@<SCITEGIC>MOL_PROPERTY
W(PB)
SciTegic.value.DoubleValue
-62.262

@<SCITEGIC>MOL_PROPERTY
W(SA)
SciTegic.value.DoubleValue
1.687

@<SCITEGIC>MOL_PROPERTY
Valence
SciTegic.value.DoubleValue
2.414

@<SCITEGIC>MOL_PROPERTY
Coulomb
SciTegic.value.DoubleValue
44.831

@<SCITEGIC>MOL_PROPERTY
VdW
SciTegic.value.DoubleValue
0.178

@<SCITEGIC>MOL_PROPERTY
VdW6
SciTegic.value.DoubleValue
-3.743

@<SCITEGIC>MOL_PROPERTY
VdW12
SciTegic.value.DoubleValue
3.922

@<SCITEGIC>MOL_PROPERTY
Bond
SciTegic.value.DoubleValue
0.138

@<SCITEGIC>MOL_PROPERTY
Angle
SciTegic.value.DoubleValue
0.941

@<SCITEGIC>MOL_PROPERTY
Pdih
SciTegic.value.DoubleValue
1.335

@<SCITEGIC>MOL_PROPERTY
Idih
SciTegic.value.DoubleValue
0.000

@<SCITEGIC>MOL_PROPERTY
Tether
SciTegic.value.DoubleValue
0.000

@<TRIPOS>MOLECULE
guest-1_confgen4.mol2 : confsearch ligand conformer 953
          17          16           1
SMALL
USER_CHARGES
 
@<TRIPOS>ATOM
       1    N1      21.220529   19.945892   20.404053 N.4        1 MOL1        -0.5891
       2    H1      21.725482   19.196399   20.885436 H          1 MOL1         0.3726
       3    H2      21.542576   20.832782   20.802915 H          1 MOL1         0.3726
       4    H3      21.525354   19.931538   19.425512 H          1 MOL1         0.3726
       5    C1      19.718129   19.781634   20.529246 C.3        1 MOL1         0.0314
       6    H4      19.439955   18.834303   20.060217 H          1 MOL1         0.0999
       7    H5      19.246544   20.589914   19.963711 H          1 MOL1         0.0999
       8    C2      19.207570   19.811238   21.984709 C.3        1 MOL1        -0.1308
       9    H6      19.455945   20.781863   22.434092 H          1 MOL1         0.1025
      10    H7      18.111178   19.751194   21.973611 H          1 MOL1         0.1025
      11    C3      19.770876   18.674213   22.873201 C.3        1 MOL1        -0.1243
      12    H8      19.365508   18.784980   23.888737 H          1 MOL1         0.1025
      13    H9      20.860515   18.774725   22.969317 H          1 MOL1         0.1025
      14    C4      19.422742   17.263813   22.344643 C.3        1 MOL1        -0.2258
      15    H10     18.337154   17.138187   22.240797 H          1 MOL1         0.1036
      16    H11     19.784015   16.492930   23.037600 H          1 MOL1         0.1036
      17    H12     19.884570   17.073156   21.367753 H          1 MOL1         0.1036
@<TRIPOS>BOND
    1     1     2    1
    2     1     3    1
    3     1     4    1
    4     1     5    1
    5     5     6    1
    6     5     7    1
    7     5     8    1
    8     8     9    1
    9     8    10    1
   10     8    11    1
   11    11    12    1
   12    11    13    1
   13    11    14    1
   14    14    15    1
   15    14    16    1
   16    14    17    1
@<TRIPOS>SUBSTRUCTURE
       1 MOL1            1 RESIDUE      1      MOL     
@<SCITEGIC>MOL_PROPERTY
VConf Rank
SciTegic.value.IntegerValue
953

@<SCITEGIC>MOL_PROPERTY
Conf_Id
SciTegic.value.IntegerValue
1

@<SCITEGIC>MOL_PROPERTY
Delta U+W
SciTegic.value.DoubleValue
0.685

@<SCITEGIC>MOL_PROPERTY
U+W
SciTegic.value.DoubleValue
-15.179

@<SCITEGIC>MOL_PROPERTY
Grad RMS
SciTegic.value.DoubleValue
0.000000

@<SCITEGIC>MOL_PROPERTY
U
SciTegic.value.DoubleValue
45.697

@<SCITEGIC>MOL_PROPERTY
W
SciTegic.value.DoubleValue
-60.876

@<SCITEGIC>MOL_PROPERTY
W(PB)
SciTegic.value.DoubleValue
-62.586

@<SCITEGIC>MOL_PROPERTY
W(SA)
SciTegic.value.DoubleValue
1.710

@<SCITEGIC>MOL_PROPERTY
Valence
SciTegic.value.DoubleValue
1.263

@<SCITEGIC>MOL_PROPERTY
Coulomb
SciTegic.value.DoubleValue
44.179

@<SCITEGIC>MOL_PROPERTY
VdW
SciTegic.value.DoubleValue
0.255

@<SCITEGIC>MOL_PROPERTY
VdW6
SciTegic.value.DoubleValue
-3.552

@<SCITEGIC>MOL_PROPERTY
VdW12
SciTegic.value.DoubleValue
3.807

@<SCITEGIC>MOL_PROPERTY
Bond
SciTegic.value.DoubleValue
0.125

@<SCITEGIC>MOL_PROPERTY
Angle
SciTegic.value.DoubleValue
0.616

@<SCITEGIC>MOL_PROPERTY
Pdih
SciTegic.value.DoubleValue
0.521

@<SCITEGIC>MOL_PROPERTY
Idih
SciTegic.value.DoubleValue
0.000

@<SCITEGIC>MOL_PROPERTY
Tether
SciTegic.value.DoubleValue
0.000

@<TRIPOS>MOLECULE
guest-1_confgen4.mol2 : confsearch ligand conformer 954
          17          16           1
SMALL
USER_CHARGES
 
@<TRIPOS>ATOM
       1    N1      19.898528   19.238873   23.574374 N.4        1 MOL1        -0.5891
       2    H1      20.365288   20.102322   23.867579 H          1 MOL1         0.3726
       3    H2      20.631284   18.558564   23.353701 H          1 MOL1         0.3726
       4    H3      19.394189   18.880859   24.391770 H          1 MOL1         0.3726
       5    C1      18.971934   19.468650   22.396034 C.3        1 MOL1         0.0314
       6    H4      18.197668   20.172365   22.713578 H          1 MOL1         0.0999
       7    H5      18.487055   18.519059   22.155255 H          1 MOL1         0.0999
       8    C2      19.682613   20.022174   21.143649 C.3        1 MOL1        -0.1308
       9    H6      18.928803   20.216731   20.369233 H          1 MOL1         0.1025
      10    H7      20.131536   20.994932   21.384393 H          1 MOL1         0.1025
      11    C3      20.771340   19.081546   20.569670 C.3        1 MOL1        -0.1243
      12    H8      21.580538   18.950168   21.300828 H          1 MOL1         0.1025
      13    H9      21.229115   19.563043   19.694167 H          1 MOL1         0.1025
      14    C4      20.218482   17.699902   20.151093 C.3        1 MOL1        -0.2258
      15    H10     21.008553   17.092319   19.691096 H          1 MOL1         0.1036
      16    H11     19.407691   17.804773   19.418503 H          1 MOL1         0.1036
      17    H12     19.831369   17.141759   21.012817 H          1 MOL1         0.1036
@<TRIPOS>BOND
    1     1     2    1
    2     1     3    1
    3     1     4    1
    4     1     5    1
    5     5     6    1
    6     5     7    1
    7     5     8    1
    8     8     9    1
    9     8    10    1
   10     8    11    1
   11    11    12    1
   12    11    13    1
   13    11    14    1
   14    14    15    1
   15    14    16    1
   16    14    17    1
@<TRIPOS>SUBSTRUCTURE
       1 MOL1            1 RESIDUE      1      MOL     
@<SCITEGIC>MOL_PROPERTY
VConf Rank
SciTegic.value.IntegerValue
954

@<SCITEGIC>MOL_PROPERTY
Conf_Id
SciTegic.value.IntegerValue
43

@<SCITEGIC>MOL_PROPERTY
Delta U+W
SciTegic.value.DoubleValue
0.642

@<SCITEGIC>MOL_PROPERTY
U+W
SciTegic.value.DoubleValue
-15.222

@<SCITEGIC>MOL_PROPERTY
Grad RMS
SciTegic.value.DoubleValue
0.000000

@<SCITEGIC>MOL_PROPERTY
U
SciTegic.value.DoubleValue
45.697

@<SCITEGIC>MOL_PROPERTY
W
SciTegic.value.DoubleValue
-60.919

@<SCITEGIC>MOL_PROPERTY
W(PB)
SciTegic.value.DoubleValue
-62.631

@<SCITEGIC>MOL_PROPERTY
W(SA)
SciTegic.value.DoubleValue
1.712

@<SCITEGIC>MOL_PROPERTY
Valence
SciTegic.value.DoubleValue
1.262

@<SCITEGIC>MOL_PROPERTY
Coulomb
SciTegic.value.DoubleValue
44.179

@<SCITEGIC>MOL_PROPERTY
VdW
SciTegic.value.DoubleValue
0.255

@<SCITEGIC>MOL_PROPERTY
VdW6
SciTegic.value.DoubleValue
-3.552

@<SCITEGIC>MOL_PROPERTY
VdW12
SciTegic.value.DoubleValue
3.807

@<SCITEGIC>MOL_PROPERTY
Bond
SciTegic.value.DoubleValue
0.125

@<SCITEGIC>MOL_PROPERTY
Angle
SciTegic.value.DoubleValue
0.616

@<SCITEGIC>MOL_PROPERTY
Pdih
SciTegic.value.DoubleValue
0.521

@<SCITEGIC>MOL_PROPERTY
Idih
SciTegic.value.DoubleValue
0.000

@<SCITEGIC>MOL_PROPERTY
Tether
SciTegic.value.DoubleValue
0.000

@<TRIPOS>MOLECULE
guest-1_confgen4.mol2 : confsearch ligand conformer 955
          17          16           1
SMALL
USER_CHARGES
 
@<TRIPOS>ATOM
       1    N1      18.987679   17.452664   23.352510 N.4        1 MOL1        -0.5891
       2    H1      18.771708   16.679042   22.716458 H          1 MOL1         0.3726
       3    H2      18.111242   17.954965   23.523536 H          1 MOL1         0.3726
       4    H3      19.267625   17.033058   24.244961 H          1 MOL1         0.3726
       5    C1      20.064275   18.362460   22.795224 C.3        1 MOL1         0.0314
       6    H4      20.974275   17.769880   22.667655 H          1 MOL1         0.0999
       7    H5      20.264095   19.141892   23.535549 H          1 MOL1         0.0999
       8    C2      19.676416   19.010385   21.453576 C.3        1 MOL1        -0.1308
       9    H6      19.461491   18.224673   20.717060 H          1 MOL1         0.1025
      10    H7      18.753848   19.592078   21.581998 H          1 MOL1         0.1025
      11    C3      20.799183   19.927932   20.921579 C.3        1 MOL1        -0.1243
      12    H8      21.723845   19.346943   20.795972 H          1 MOL1         0.1025
      13    H9      21.017019   20.712718   21.659810 H          1 MOL1         0.1025
      14    C4      20.417220   20.581416   19.575838 C.3        1 MOL1        -0.2258
      15    H10     21.227223   21.228645   19.215231 H          1 MOL1         0.1036
      16    H11     19.514459   21.197732   19.677732 H          1 MOL1         0.1036
      17    H12     20.226805   19.821163   18.807094 H          1 MOL1         0.1036
@<TRIPOS>BOND
    1     1     2    1
    2     1     3    1
    3     1     4    1
    4     1     5    1
    5     5     6    1
    6     5     7    1
    7     5     8    1
    8     8     9    1
    9     8    10    1
   10     8    11    1
   11    11    12    1
   12    11    13    1
   13    11    14    1
   14    14    15    1
   15    14    16    1
   16    14    17    1
@<TRIPOS>SUBSTRUCTURE
       1 MOL1            1 RESIDUE      1      MOL     
@<SCITEGIC>MOL_PROPERTY
VConf Rank
SciTegic.value.IntegerValue
955

@<SCITEGIC>MOL_PROPERTY
Conf_Id
SciTegic.value.IntegerValue
7

@<SCITEGIC>MOL_PROPERTY
Delta U+W
SciTegic.value.DoubleValue
0.000

@<SCITEGIC>MOL_PROPERTY
U+W
SciTegic.value.DoubleValue
-15.865

@<SCITEGIC>MOL_PROPERTY
Grad RMS
SciTegic.value.DoubleValue
0.000000

@<SCITEGIC>MOL_PROPERTY
U
SciTegic.value.DoubleValue
44.664

@<SCITEGIC>MOL_PROPERTY
W
SciTegic.value.DoubleValue
-60.529

@<SCITEGIC>MOL_PROPERTY
W(PB)
SciTegic.value.DoubleValue
-62.309

@<SCITEGIC>MOL_PROPERTY
W(SA)
SciTegic.value.DoubleValue
1.780

@<SCITEGIC>MOL_PROPERTY
Valence
SciTegic.value.DoubleValue
0.872

@<SCITEGIC>MOL_PROPERTY
Coulomb
SciTegic.value.DoubleValue
43.648

@<SCITEGIC>MOL_PROPERTY
VdW
SciTegic.value.DoubleValue
0.144

@<SCITEGIC>MOL_PROPERTY
VdW6
SciTegic.value.DoubleValue
-2.370

@<SCITEGIC>MOL_PROPERTY
VdW12
SciTegic.value.DoubleValue
2.515

@<SCITEGIC>MOL_PROPERTY
Bond
SciTegic.value.DoubleValue
0.080

@<SCITEGIC>MOL_PROPERTY
Angle
SciTegic.value.DoubleValue
0.376

@<SCITEGIC>MOL_PROPERTY
Pdih
SciTegic.value.DoubleValue
0.416

@<SCITEGIC>MOL_PROPERTY
Idih
SciTegic.value.DoubleValue
0.000

@<SCITEGIC>MOL_PROPERTY
Tether
SciTegic.value.DoubleValue
0.000

@<TRIPOS>MOLECULE
guest-1_confgen4.mol2 : confsearch ligand conformer 956
          17          16           1
SMALL
USER_CHARGES
 
@<TRIPOS>ATOM
       1    N1      20.927124   17.338941   20.300098 N.4        1 MOL1        -0.5891
       2    H1      21.946121   17.438082   20.338365 H          1 MOL1         0.3726
       3    H2      20.627303   17.669319   19.377816 H          1 MOL1         0.3726
       4    H3      20.725726   16.334419   20.334991 H          1 MOL1         0.3726
       5    C1      20.240884   18.090826   21.423085 C.3        1 MOL1         0.0314
       6    H4      20.583283   17.668082   22.371483 H          1 MOL1         0.0999
       7    H5      19.165538   17.914434   21.337327 H          1 MOL1         0.0999
       8    C2      20.522584   19.605446   21.400047 C.3        1 MOL1        -0.1308
       9    H6      21.607261   19.770424   21.446245 H          1 MOL1         0.1025
      10    H7      20.180204   20.029725   20.446815 H          1 MOL1         0.1025
      11    C3      19.849095   20.355306   22.573132 C.3        1 MOL1        -0.1243
      12    H8      20.154050   21.410834   22.544090 H          1 MOL1         0.1025
      13    H9      20.215953   19.954107   23.528453 H          1 MOL1         0.1025
      14    C4      18.305695   20.275260   22.534850 C.3        1 MOL1        -0.2258
      15    H10     17.913256   20.665031   21.586591 H          1 MOL1         0.1036
      16    H11     17.869145   20.870233   23.347523 H          1 MOL1         0.1036
      17    H12     17.952159   19.243304   22.653888 H          1 MOL1         0.1036
@<TRIPOS>BOND
    1     1     2    1
    2     1     3    1
    3     1     4    1
    4     1     5    1
    5     5     6    1
    6     5     7    1
    7     5     8    1
    8     8     9    1
    9     8    10    1
   10     8    11    1
   11    11    12    1
   12    11    13    1
   13    11    14    1
   14    14    15    1
   15    14    16    1
   16    14    17    1
@<TRIPOS>SUBSTRUCTURE
       1 MOL1            1 RESIDUE      1      MOL     
@<SCITEGIC>MOL_PROPERTY
VConf Rank
SciTegic.value.IntegerValue
956

@<SCITEGIC>MOL_PROPERTY
Conf_Id
SciTegic.value.IntegerValue
36

@<SCITEGIC>MOL_PROPERTY
Delta U+W
SciTegic.value.DoubleValue
0.275

@<SCITEGIC>MOL_PROPERTY
U+W
SciTegic.value.DoubleValue
-15.590

@<SCITEGIC>MOL_PROPERTY
Grad RMS
SciTegic.value.DoubleValue
0.000000

@<SCITEGIC>MOL_PROPERTY
U
SciTegic.value.DoubleValue
45.174

@<SCITEGIC>MOL_PROPERTY
W
SciTegic.value.DoubleValue
-60.765

@<SCITEGIC>MOL_PROPERTY
W(PB)
SciTegic.value.DoubleValue
-62.518

@<SCITEGIC>MOL_PROPERTY
W(SA)
SciTegic.value.DoubleValue
1.754

@<SCITEGIC>MOL_PROPERTY
Valence
SciTegic.value.DoubleValue
1.161

@<SCITEGIC>MOL_PROPERTY
Coulomb
SciTegic.value.DoubleValue
43.789

@<SCITEGIC>MOL_PROPERTY
VdW
SciTegic.value.DoubleValue
0.224

@<SCITEGIC>MOL_PROPERTY
VdW6
SciTegic.value.DoubleValue
-2.897

@<SCITEGIC>MOL_PROPERTY
VdW12
SciTegic.value.DoubleValue
3.121

@<SCITEGIC>MOL_PROPERTY
Bond
SciTegic.value.DoubleValue
0.100

@<SCITEGIC>MOL_PROPERTY
Angle
SciTegic.value.DoubleValue
0.500

@<SCITEGIC>MOL_PROPERTY
Pdih
SciTegic.value.DoubleValue
0.561

@<SCITEGIC>MOL_PROPERTY
Idih
SciTegic.value.DoubleValue
0.000

@<SCITEGIC>MOL_PROPERTY
Tether
SciTegic.value.DoubleValue
0.000

@<TRIPOS>MOLECULE
guest-1_confgen4.mol2 : confsearch ligand conformer 957
          17          16           1
SMALL
USER_CHARGES
 
@<TRIPOS>ATOM
       1    N1      19.395116   20.684735   21.073542 N.4        1 MOL1        -0.5891
       2    H1      18.616437   20.151722   21.469017 H          1 MOL1         0.3726
       3    H2      19.299236   20.646941   20.054298 H          1 MOL1         0.3726
       4    H3      19.262394   21.663309   21.348495 H          1 MOL1         0.3726
       5    C1      20.736152   20.146335   21.533735 C.3        1 MOL1         0.0314
       6    H4      20.809454   20.274304   22.617041 H          1 MOL1         0.0999
       7    H5      21.506709   20.766292   21.067439 H          1 MOL1         0.0999
       8    C2      20.987472   18.669245   21.164066 C.3        1 MOL1        -0.1308
       9    H6      20.675526   18.483089   20.127840 H          1 MOL1         0.1025
      10    H7      22.071901   18.498034   21.187470 H          1 MOL1         0.1025
      11    C3      20.322693   17.645501   22.119431 C.3        1 MOL1        -0.1243
      12    H8      20.691306   17.801760   23.143017 H          1 MOL1         0.1025
      13    H9      20.650771   16.637532   21.828996 H          1 MOL1         0.1025
      14    C4      18.777470   17.679671   22.117662 C.3        1 MOL1        -0.2258
      15    H10     18.394573   18.588747   22.595831 H          1 MOL1         0.1036
      16    H11     18.377370   16.826478   22.680812 H          1 MOL1         0.1036
      17    H12     18.378619   17.621021   21.096568 H          1 MOL1         0.1036
@<TRIPOS>BOND
    1     1     2    1
    2     1     3    1
    3     1     4    1
    4     1     5    1
    5     5     6    1
    6     5     7    1
    7     5     8    1
    8     8     9    1
    9     8    10    1
   10     8    11    1
   11    11    12    1
   12    11    13    1
   13    11    14    1
   14    14    15    1
   15    14    16    1
   16    14    17    1
@<TRIPOS>SUBSTRUCTURE
       1 MOL1            1 RESIDUE      1      MOL     
@<SCITEGIC>MOL_PROPERTY
VConf Rank
SciTegic.value.IntegerValue
957

@<SCITEGIC>MOL_PROPERTY
Conf_Id
SciTegic.value.IntegerValue
19

@<SCITEGIC>MOL_PROPERTY
Delta U+W
SciTegic.value.DoubleValue
2.662

@<SCITEGIC>MOL_PROPERTY
U+W
SciTegic.value.DoubleValue
-13.203

@<SCITEGIC>MOL_PROPERTY
Grad RMS
SciTegic.value.DoubleValue
0.000000

@<SCITEGIC>MOL_PROPERTY
U
SciTegic.value.DoubleValue
47.423

@<SCITEGIC>MOL_PROPERTY
W
SciTegic.value.DoubleValue
-60.626

@<SCITEGIC>MOL_PROPERTY
W(PB)
SciTegic.value.DoubleValue
-62.328

@<SCITEGIC>MOL_PROPERTY
W(SA)
SciTegic.value.DoubleValue
1.702

@<SCITEGIC>MOL_PROPERTY
Valence
SciTegic.value.DoubleValue
2.414

@<SCITEGIC>MOL_PROPERTY
Coulomb
SciTegic.value.DoubleValue
44.831

@<SCITEGIC>MOL_PROPERTY
VdW
SciTegic.value.DoubleValue
0.178

@<SCITEGIC>MOL_PROPERTY
VdW6
SciTegic.value.DoubleValue
-3.743

@<SCITEGIC>MOL_PROPERTY
VdW12
SciTegic.value.DoubleValue
3.921

@<SCITEGIC>MOL_PROPERTY
Bond
SciTegic.value.DoubleValue
0.138

@<SCITEGIC>MOL_PROPERTY
Angle
SciTegic.value.DoubleValue
0.941

@<SCITEGIC>MOL_PROPERTY
Pdih
SciTegic.value.DoubleValue
1.335

@<SCITEGIC>MOL_PROPERTY
Idih
SciTegic.value.DoubleValue
0.000

@<SCITEGIC>MOL_PROPERTY
Tether
SciTegic.value.DoubleValue
0.000

@<TRIPOS>MOLECULE
guest-1_confgen4.mol2 : confsearch ligand conformer 958
          17          16           1
SMALL
USER_CHARGES
 
@<TRIPOS>ATOM
       1    N1      19.228513   20.600741   22.413351 N.4        1 MOL1        -0.5891
       2    H1      18.877106   21.027520   23.276599 H          1 MOL1         0.3726
       3    H2      19.031730   21.260189   21.654480 H          1 MOL1         0.3726
       4    H3      20.245965   20.537103   22.500449 H          1 MOL1         0.3726
       5    C1      18.600114   19.244248   22.158240 C.3        1 MOL1         0.0314
       6    H4      17.521197   19.401851   22.076780 H          1 MOL1         0.0999
       7    H5      18.783676   18.606610   23.027162 H          1 MOL1         0.0999
       8    C2      19.103619   18.542195   20.879485 C.3        1 MOL1        -0.1308
       9    H6      18.350868   17.797876   20.587592 H          1 MOL1         0.1025
      10    H7      19.153228   19.261162   20.051020 H          1 MOL1         0.1025
      11    C3      20.460436   17.810082   21.039987 C.3        1 MOL1        -0.1243
      12    H8      20.670028   17.262160   20.110556 H          1 MOL1         0.1025
      13    H9      20.378884   17.049479   21.829198 H          1 MOL1         0.1025
      14    C4      21.656723   18.740596   21.343169 C.3        1 MOL1        -0.2258
      15    H10     21.709395   19.569067   20.624828 H          1 MOL1         0.1036
      16    H11     22.599521   18.182120   21.276892 H          1 MOL1         0.1036
      17    H12     21.598209   19.153849   22.356815 H          1 MOL1         0.1036
@<TRIPOS>BOND
    1     1     2    1
    2     1     3    1
    3     1     4    1
    4     1     5    1
    5     5     6    1
    6     5     7    1
    7     5     8    1
    8     8     9    1
    9     8    10    1
   10     8    11    1
   11    11    12    1
   12    11    13    1
   13    11    14    1
   14    14    15    1
   15    14    16    1
   16    14    17    1
@<TRIPOS>SUBSTRUCTURE
       1 MOL1            1 RESIDUE      1      MOL     
@<SCITEGIC>MOL_PROPERTY
VConf Rank
SciTegic.value.IntegerValue
958

@<SCITEGIC>MOL_PROPERTY
Conf_Id
SciTegic.value.IntegerValue
44

@<SCITEGIC>MOL_PROPERTY
Delta U+W
SciTegic.value.DoubleValue
2.712

@<SCITEGIC>MOL_PROPERTY
U+W
SciTegic.value.DoubleValue
-13.153

@<SCITEGIC>MOL_PROPERTY
Grad RMS
SciTegic.value.DoubleValue
0.000000

@<SCITEGIC>MOL_PROPERTY
U
SciTegic.value.DoubleValue
47.423

@<SCITEGIC>MOL_PROPERTY
W
SciTegic.value.DoubleValue
-60.576

@<SCITEGIC>MOL_PROPERTY
W(PB)
SciTegic.value.DoubleValue
-62.262

@<SCITEGIC>MOL_PROPERTY
W(SA)
SciTegic.value.DoubleValue
1.687

@<SCITEGIC>MOL_PROPERTY
Valence
SciTegic.value.DoubleValue
2.414

@<SCITEGIC>MOL_PROPERTY
Coulomb
SciTegic.value.DoubleValue
44.831

@<SCITEGIC>MOL_PROPERTY
VdW
SciTegic.value.DoubleValue
0.178

@<SCITEGIC>MOL_PROPERTY
VdW6
SciTegic.value.DoubleValue
-3.743

@<SCITEGIC>MOL_PROPERTY
VdW12
SciTegic.value.DoubleValue
3.922

@<SCITEGIC>MOL_PROPERTY
Bond
SciTegic.value.DoubleValue
0.138

@<SCITEGIC>MOL_PROPERTY
Angle
SciTegic.value.DoubleValue
0.941

@<SCITEGIC>MOL_PROPERTY
Pdih
SciTegic.value.DoubleValue
1.335

@<SCITEGIC>MOL_PROPERTY
Idih
SciTegic.value.DoubleValue
0.000

@<SCITEGIC>MOL_PROPERTY
Tether
SciTegic.value.DoubleValue
0.000

@<TRIPOS>MOLECULE
guest-1_confgen4.mol2 : confsearch ligand conformer 959
          17          16           1
SMALL
USER_CHARGES
 
@<TRIPOS>ATOM
       1    N1      21.467080   18.104869   20.776761 N.4        1 MOL1        -0.5891
       2    H1      21.842583   18.752149   21.475670 H          1 MOL1         0.3726
       3    H2      21.692501   18.490454   19.854866 H          1 MOL1         0.3726
       4    H3      21.990542   17.228416   20.868872 H          1 MOL1         0.3726
       5    C1      19.975781   17.892203   20.951854 C.3        1 MOL1         0.0314
       6    H4      19.808995   17.453930   21.939226 H          1 MOL1         0.0999
       7    H5      19.652573   17.166096   20.200959 H          1 MOL1         0.0999
       8    C2      19.141631   19.181879   20.807462 C.3        1 MOL1        -0.1308
       9    H6      19.284113   19.592228   19.798967 H          1 MOL1         0.1025
      10    H7      18.077429   18.922299   20.884244 H          1 MOL1         0.1025
      11    C3      19.477381   20.270197   21.857411 C.3        1 MOL1        -0.1243
      12    H8      18.848051   21.151003   21.667598 H          1 MOL1         0.1025
      13    H9      20.515504   20.607155   21.733259 H          1 MOL1         0.1025
      14    C4      19.253900   19.797470   23.312190 C.3        1 MOL1        -0.2258
      15    H10     18.221377   19.456098   23.461956 H          1 MOL1         0.1036
      16    H11     19.440442   20.618323   24.016726 H          1 MOL1         0.1036
      17    H12     19.928758   18.973995   23.577529 H          1 MOL1         0.1036
@<TRIPOS>BOND
    1     1     2    1
    2     1     3    1
    3     1     4    1
    4     1     5    1
    5     5     6    1
    6     5     7    1
    7     5     8    1
    8     8     9    1
    9     8    10    1
   10     8    11    1
   11    11    12    1
   12    11    13    1
   13    11    14    1
   14    14    15    1
   15    14    16    1
   16    14    17    1
@<TRIPOS>SUBSTRUCTURE
       1 MOL1            1 RESIDUE      1      MOL     
@<SCITEGIC>MOL_PROPERTY
VConf Rank
SciTegic.value.IntegerValue
959

@<SCITEGIC>MOL_PROPERTY
Conf_Id
SciTegic.value.IntegerValue
1

@<SCITEGIC>MOL_PROPERTY
Delta U+W
SciTegic.value.DoubleValue
0.685

@<SCITEGIC>MOL_PROPERTY
U+W
SciTegic.value.DoubleValue
-15.179

@<SCITEGIC>MOL_PROPERTY
Grad RMS
SciTegic.value.DoubleValue
0.000000

@<SCITEGIC>MOL_PROPERTY
U
SciTegic.value.DoubleValue
45.697

@<SCITEGIC>MOL_PROPERTY
W
SciTegic.value.DoubleValue
-60.876

@<SCITEGIC>MOL_PROPERTY
W(PB)
SciTegic.value.DoubleValue
-62.586

@<SCITEGIC>MOL_PROPERTY
W(SA)
SciTegic.value.DoubleValue
1.710

@<SCITEGIC>MOL_PROPERTY
Valence
SciTegic.value.DoubleValue
1.263

@<SCITEGIC>MOL_PROPERTY
Coulomb
SciTegic.value.DoubleValue
44.179

@<SCITEGIC>MOL_PROPERTY
VdW
SciTegic.value.DoubleValue
0.255

@<SCITEGIC>MOL_PROPERTY
VdW6
SciTegic.value.DoubleValue
-3.552

@<SCITEGIC>MOL_PROPERTY
VdW12
SciTegic.value.DoubleValue
3.807

@<SCITEGIC>MOL_PROPERTY
Bond
SciTegic.value.DoubleValue
0.125

@<SCITEGIC>MOL_PROPERTY
Angle
SciTegic.value.DoubleValue
0.616

@<SCITEGIC>MOL_PROPERTY
Pdih
SciTegic.value.DoubleValue
0.521

@<SCITEGIC>MOL_PROPERTY
Idih
SciTegic.value.DoubleValue
0.000

@<SCITEGIC>MOL_PROPERTY
Tether
SciTegic.value.DoubleValue
0.000

@<TRIPOS>MOLECULE
guest-1_confgen4.mol2 : confsearch ligand conformer 960
          17          16           1
SMALL
USER_CHARGES
 
@<TRIPOS>ATOM
       1    N1      18.176128   19.200676   20.674384 N.4        1 MOL1        -0.5891
       2    H1      18.165642   18.682236   19.790932 H          1 MOL1         0.3726
       3    H2      18.690321   20.070529   20.508822 H          1 MOL1         0.3726
       4    H3      17.205871   19.460824   20.878324 H          1 MOL1         0.3726
       5    C1      18.790956   18.389942   21.798908 C.3        1 MOL1         0.0314
       6    H4      18.172607   17.499991   21.944407 H          1 MOL1         0.0999
       7    H5      18.743679   18.987199   22.713158 H          1 MOL1         0.0999
       8    C2      20.248682   17.961012   21.532496 C.3        1 MOL1        -0.1308
       9    H6      20.586474   17.328991   22.364511 H          1 MOL1         0.1025
      10    H7      20.279966   17.328132   20.635705 H          1 MOL1         0.1025
      11    C3      21.232422   19.145173   21.360522 C.3        1 MOL1        -0.1243
      12    H8      20.960945   19.736068   20.475199 H          1 MOL1         0.1025
      13    H9      22.236484   18.744936   21.161588 H          1 MOL1         0.1025
      14    C4      21.295335   20.065183   22.601256 C.3        1 MOL1        -0.2258
      15    H10     22.050209   20.849695   22.460985 H          1 MOL1         0.1036
      16    H11     21.566412   19.496932   23.500519 H          1 MOL1         0.1036
      17    H12     20.333852   20.560520   22.786025 H          1 MOL1         0.1036
@<TRIPOS>BOND
    1     1     2    1
    2     1     3    1
    3     1     4    1
    4     1     5    1
    5     5     6    1
    6     5     7    1
    7     5     8    1
    8     8     9    1
    9     8    10    1
   10     8    11    1
   11    11    12    1
   12    11    13    1
   13    11    14    1
   14    14    15    1
   15    14    16    1
   16    14    17    1
@<TRIPOS>SUBSTRUCTURE
       1 MOL1            1 RESIDUE      1      MOL     
@<SCITEGIC>MOL_PROPERTY
VConf Rank
SciTegic.value.IntegerValue
960

@<SCITEGIC>MOL_PROPERTY
Conf_Id
SciTegic.value.IntegerValue
43

@<SCITEGIC>MOL_PROPERTY
Delta U+W
SciTegic.value.DoubleValue
0.642

@<SCITEGIC>MOL_PROPERTY
U+W
SciTegic.value.DoubleValue
-15.222

@<SCITEGIC>MOL_PROPERTY
Grad RMS
SciTegic.value.DoubleValue
0.000000

@<SCITEGIC>MOL_PROPERTY
U
SciTegic.value.DoubleValue
45.697

@<SCITEGIC>MOL_PROPERTY
W
SciTegic.value.DoubleValue
-60.919

@<SCITEGIC>MOL_PROPERTY
W(PB)
SciTegic.value.DoubleValue
-62.631

@<SCITEGIC>MOL_PROPERTY
W(SA)
SciTegic.value.DoubleValue
1.712

@<SCITEGIC>MOL_PROPERTY
Valence
SciTegic.value.DoubleValue
1.262

@<SCITEGIC>MOL_PROPERTY
Coulomb
SciTegic.value.DoubleValue
44.179

@<SCITEGIC>MOL_PROPERTY
VdW
SciTegic.value.DoubleValue
0.255

@<SCITEGIC>MOL_PROPERTY
VdW6
SciTegic.value.DoubleValue
-3.552

@<SCITEGIC>MOL_PROPERTY
VdW12
SciTegic.value.DoubleValue
3.807

@<SCITEGIC>MOL_PROPERTY
Bond
SciTegic.value.DoubleValue
0.125

@<SCITEGIC>MOL_PROPERTY
Angle
SciTegic.value.DoubleValue
0.616

@<SCITEGIC>MOL_PROPERTY
Pdih
SciTegic.value.DoubleValue
0.521

@<SCITEGIC>MOL_PROPERTY
Idih
SciTegic.value.DoubleValue
0.000

@<SCITEGIC>MOL_PROPERTY
Tether
SciTegic.value.DoubleValue
0.000

@<TRIPOS>MOLECULE
guest-1_confgen4.mol2 : confsearch ligand conformer 961
          17          16           1
SMALL
USER_CHARGES
 
@<TRIPOS>ATOM
       1    N1      21.307193   17.419650   20.164032 N.4        1 MOL1        -0.5891
       2    H1      21.467558   16.711125   20.886508 H          1 MOL1         0.3726
       3    H2      22.163612   17.977729   20.094805 H          1 MOL1         0.3726
       4    H3      21.207254   16.918933   19.275099 H          1 MOL1         0.3726
       5    C1      20.094167   18.276166   20.467851 C.3        1 MOL1         0.0314
       6    H4      19.218020   17.622650   20.496239 H          1 MOL1         0.0999
       7    H5      19.966474   18.984636   19.644875 H          1 MOL1         0.0999
       8    C2      20.210781   19.043288   21.797582 C.3        1 MOL1        -0.1308
       9    H6      20.354392   18.329524   22.619718 H          1 MOL1         0.1025
      10    H7      21.100176   19.686927   21.771229 H          1 MOL1         0.1025
      11    C3      18.955961   19.902082   22.068545 C.3        1 MOL1        -0.1243
      12    H8      18.064921   19.258782   22.091738 H          1 MOL1         0.1025
      13    H9      18.809831   20.614574   21.244332 H          1 MOL1         0.1025
      14    C4      19.065720   20.674538   23.400918 C.3        1 MOL1        -0.2258
      15    H10     18.165271   21.277878   23.574762 H          1 MOL1         0.1036
      16    H11     19.928902   21.352834   23.394730 H          1 MOL1         0.1036
      17    H12     19.178174   19.986330   24.248817 H          1 MOL1         0.1036
@<TRIPOS>BOND
    1     1     2    1
    2     1     3    1
    3     1     4    1
    4     1     5    1
    5     5     6    1
    6     5     7    1
    7     5     8    1
    8     8     9    1
    9     8    10    1
   10     8    11    1
   11    11    12    1
   12    11    13    1
   13    11    14    1
   14    14    15    1
   15    14    16    1
   16    14    17    1
@<TRIPOS>SUBSTRUCTURE
       1 MOL1            1 RESIDUE      1      MOL     
@<SCITEGIC>MOL_PROPERTY
VConf Rank
SciTegic.value.IntegerValue
961

@<SCITEGIC>MOL_PROPERTY
Conf_Id
SciTegic.value.IntegerValue
7

@<SCITEGIC>MOL_PROPERTY
Delta U+W
SciTegic.value.DoubleValue
0.000

@<SCITEGIC>MOL_PROPERTY
U+W
SciTegic.value.DoubleValue
-15.865

@<SCITEGIC>MOL_PROPERTY
Grad RMS
SciTegic.value.DoubleValue
0.000000

@<SCITEGIC>MOL_PROPERTY
U
SciTegic.value.DoubleValue
44.664

@<SCITEGIC>MOL_PROPERTY
W
SciTegic.value.DoubleValue
-60.529

@<SCITEGIC>MOL_PROPERTY
W(PB)
SciTegic.value.DoubleValue
-62.309

@<SCITEGIC>MOL_PROPERTY
W(SA)
SciTegic.value.DoubleValue
1.780

@<SCITEGIC>MOL_PROPERTY
Valence
SciTegic.value.DoubleValue
0.872

@<SCITEGIC>MOL_PROPERTY
Coulomb
SciTegic.value.DoubleValue
43.648

@<SCITEGIC>MOL_PROPERTY
VdW
SciTegic.value.DoubleValue
0.144

@<SCITEGIC>MOL_PROPERTY
VdW6
SciTegic.value.DoubleValue
-2.370

@<SCITEGIC>MOL_PROPERTY
VdW12
SciTegic.value.DoubleValue
2.515

@<SCITEGIC>MOL_PROPERTY
Bond
SciTegic.value.DoubleValue
0.080

@<SCITEGIC>MOL_PROPERTY
Angle
SciTegic.value.DoubleValue
0.376

@<SCITEGIC>MOL_PROPERTY
Pdih
SciTegic.value.DoubleValue
0.416

@<SCITEGIC>MOL_PROPERTY
Idih
SciTegic.value.DoubleValue
0.000

@<SCITEGIC>MOL_PROPERTY
Tether
SciTegic.value.DoubleValue
0.000

@<TRIPOS>MOLECULE
guest-1_confgen4.mol2 : confsearch ligand conformer 962
          17          16           1
SMALL
USER_CHARGES
 
@<TRIPOS>ATOM
       1    N1      18.936750   20.670184   20.082018 N.4        1 MOL1        -0.5891
       2    H1      18.143412   21.125220   20.543760 H          1 MOL1         0.3726
       3    H2      18.549947   19.992339   19.418275 H          1 MOL1         0.3726
       4    H3      19.410032   21.390954   19.527636 H          1 MOL1         0.3726
       5    C1      19.875267   20.017820   21.077489 C.3        1 MOL1         0.0314
       6    H4      20.271405   20.799753   21.730989 H          1 MOL1         0.0999
       7    H5      20.708221   19.583271   20.518746 H          1 MOL1         0.0999
       8    C2      19.195253   18.927917   21.928167 C.3        1 MOL1        -0.1308
       9    H6      18.336202   19.365574   22.453870 H          1 MOL1         0.1025
      10    H7      18.795920   18.143409   21.271685 H          1 MOL1         0.1025
      11    C3      20.152777   18.297637   22.966387 C.3        1 MOL1        -0.1243
      12    H8      19.587820   17.590452   23.589840 H          1 MOL1         0.1025
      13    H9      20.527564   19.076609   23.645298 H          1 MOL1         0.1025
      14    C4      21.344652   17.557002   22.317656 C.3        1 MOL1        -0.2258
      15    H10     20.996958   16.776079   21.628894 H          1 MOL1         0.1036
      16    H11     21.962427   17.074587   23.086186 H          1 MOL1         0.1036
      17    H12     21.990774   18.244966   21.757904 H          1 MOL1         0.1036
@<TRIPOS>BOND
    1     1     2    1
    2     1     3    1
    3     1     4    1
    4     1     5    1
    5     5     6    1
    6     5     7    1
    7     5     8    1
    8     8     9    1
    9     8    10    1
   10     8    11    1
   11    11    12    1
   12    11    13    1
   13    11    14    1
   14    14    15    1
   15    14    16    1
   16    14    17    1
@<TRIPOS>SUBSTRUCTURE
       1 MOL1            1 RESIDUE      1      MOL     
@<SCITEGIC>MOL_PROPERTY
VConf Rank
SciTegic.value.IntegerValue
962

@<SCITEGIC>MOL_PROPERTY
Conf_Id
SciTegic.value.IntegerValue
36

@<SCITEGIC>MOL_PROPERTY
Delta U+W
SciTegic.value.DoubleValue
0.275

@<SCITEGIC>MOL_PROPERTY
U+W
SciTegic.value.DoubleValue
-15.590

@<SCITEGIC>MOL_PROPERTY
Grad RMS
SciTegic.value.DoubleValue
0.000000

@<SCITEGIC>MOL_PROPERTY
U
SciTegic.value.DoubleValue
45.174

@<SCITEGIC>MOL_PROPERTY
W
SciTegic.value.DoubleValue
-60.765

@<SCITEGIC>MOL_PROPERTY
W(PB)
SciTegic.value.DoubleValue
-62.518

@<SCITEGIC>MOL_PROPERTY
W(SA)
SciTegic.value.DoubleValue
1.754

@<SCITEGIC>MOL_PROPERTY
Valence
SciTegic.value.DoubleValue
1.161

@<SCITEGIC>MOL_PROPERTY
Coulomb
SciTegic.value.DoubleValue
43.789

@<SCITEGIC>MOL_PROPERTY
VdW
SciTegic.value.DoubleValue
0.224

@<SCITEGIC>MOL_PROPERTY
VdW6
SciTegic.value.DoubleValue
-2.897

@<SCITEGIC>MOL_PROPERTY
VdW12
SciTegic.value.DoubleValue
3.121

@<SCITEGIC>MOL_PROPERTY
Bond
SciTegic.value.DoubleValue
0.100

@<SCITEGIC>MOL_PROPERTY
Angle
SciTegic.value.DoubleValue
0.500

@<SCITEGIC>MOL_PROPERTY
Pdih
SciTegic.value.DoubleValue
0.561

@<SCITEGIC>MOL_PROPERTY
Idih
SciTegic.value.DoubleValue
0.000

@<SCITEGIC>MOL_PROPERTY
Tether
SciTegic.value.DoubleValue
0.000

@<TRIPOS>MOLECULE
guest-1_confgen4.mol2 : confsearch ligand conformer 963
          17          16           1
SMALL
USER_CHARGES
 
@<TRIPOS>ATOM
       1    N1      21.167781   17.710331   21.042016 N.4        1 MOL1        -0.5891
       2    H1      20.563660   17.344996   21.782565 H          1 MOL1         0.3726
       3    H2      22.058928   17.965109   21.478392 H          1 MOL1         0.3726
       4    H3      21.362060   16.935072   20.400103 H          1 MOL1         0.3726
       5    C1      20.532767   18.888171   20.328237 C.3        1 MOL1         0.0314
       6    H4      19.624823   18.542857   19.826542 H          1 MOL1         0.0999
       7    H5      21.239196   19.215573   19.560576 H          1 MOL1         0.0999
       8    C2      20.199747   20.082420   21.247194 C.3        1 MOL1        -0.1308
       9    H6      21.036132   20.273689   21.932471 H          1 MOL1         0.1025
      10    H7      20.116607   20.977387   20.616347 H          1 MOL1         0.1025
      11    C3      18.876198   19.933741   22.040173 C.3        1 MOL1        -0.1243
      12    H8      18.038388   19.806113   21.340310 H          1 MOL1         0.1025
      13    H9      18.685171   20.875185   22.574198 H          1 MOL1         0.1025
      14    C4      18.871842   18.776914   23.065168 C.3        1 MOL1        -0.2258
      15    H10     18.849972   17.799715   22.568904 H          1 MOL1         0.1036
      16    H11     17.978883   18.835340   23.701066 H          1 MOL1         0.1036
      17    H12     19.751044   18.822105   23.720999 H          1 MOL1         0.1036
@<TRIPOS>BOND
    1     1     2    1
    2     1     3    1
    3     1     4    1
    4     1     5    1
    5     5     6    1
    6     5     7    1
    7     5     8    1
    8     8     9    1
    9     8    10    1
   10     8    11    1
   11    11    12    1
   12    11    13    1
   13    11    14    1
   14    14    15    1
   15    14    16    1
   16    14    17    1
@<TRIPOS>SUBSTRUCTURE
       1 MOL1            1 RESIDUE      1      MOL     
@<SCITEGIC>MOL_PROPERTY
VConf Rank
SciTegic.value.IntegerValue
963

@<SCITEGIC>MOL_PROPERTY
Conf_Id
SciTegic.value.IntegerValue
19

@<SCITEGIC>MOL_PROPERTY
Delta U+W
SciTegic.value.DoubleValue
2.662

@<SCITEGIC>MOL_PROPERTY
U+W
SciTegic.value.DoubleValue
-13.203

@<SCITEGIC>MOL_PROPERTY
Grad RMS
SciTegic.value.DoubleValue
0.000000

@<SCITEGIC>MOL_PROPERTY
U
SciTegic.value.DoubleValue
47.423

@<SCITEGIC>MOL_PROPERTY
W
SciTegic.value.DoubleValue
-60.626

@<SCITEGIC>MOL_PROPERTY
W(PB)
SciTegic.value.DoubleValue
-62.328

@<SCITEGIC>MOL_PROPERTY
W(SA)
SciTegic.value.DoubleValue
1.702

@<SCITEGIC>MOL_PROPERTY
Valence
SciTegic.value.DoubleValue
2.414

@<SCITEGIC>MOL_PROPERTY
Coulomb
SciTegic.value.DoubleValue
44.831

@<SCITEGIC>MOL_PROPERTY
VdW
SciTegic.value.DoubleValue
0.178

@<SCITEGIC>MOL_PROPERTY
VdW6
SciTegic.value.DoubleValue
-3.743

@<SCITEGIC>MOL_PROPERTY
VdW12
SciTegic.value.DoubleValue
3.921

@<SCITEGIC>MOL_PROPERTY
Bond
SciTegic.value.DoubleValue
0.138

@<SCITEGIC>MOL_PROPERTY
Angle
SciTegic.value.DoubleValue
0.941

@<SCITEGIC>MOL_PROPERTY
Pdih
SciTegic.value.DoubleValue
1.335

@<SCITEGIC>MOL_PROPERTY
Idih
SciTegic.value.DoubleValue
0.000

@<SCITEGIC>MOL_PROPERTY
Tether
SciTegic.value.DoubleValue
0.000

@<TRIPOS>MOLECULE
guest-1_confgen4.mol2 : confsearch ligand conformer 964
          17          16           1
SMALL
USER_CHARGES
 
@<TRIPOS>ATOM
       1    N1      18.162689   18.383067   21.391403 N.4        1 MOL1        -0.5891
       2    H1      17.589239   17.560993   21.176525 H          1 MOL1         0.3726
       3    H2      17.538388   19.194979   21.368416 H          1 MOL1         0.3726
       4    H3      18.487766   18.280645   22.356120 H          1 MOL1         0.3726
       5    C1      19.318837   18.533587   20.421502 C.3        1 MOL1         0.0314
       6    H4      18.886682   18.638655   19.422633 H          1 MOL1         0.0999
       7    H5      19.909753   17.613903   20.438850 H          1 MOL1         0.0999
       8    C2      20.230858   19.745851   20.704775 C.3        1 MOL1        -0.1308
       9    H6      20.768894   19.984032   19.777611 H          1 MOL1         0.1025
      10    H7      19.620659   20.629427   20.934297 H          1 MOL1         0.1025
      11    C3      21.282425   19.512485   21.819428 C.3        1 MOL1        -0.1243
      12    H8      21.939818   20.392136   21.864582 H          1 MOL1         0.1025
      13    H9      21.927286   18.664977   21.547570 H          1 MOL1         0.1025
      14    C4      20.682784   19.273622   23.223797 C.3        1 MOL1        -0.2258
      15    H10     19.959304   20.056307   23.486729 H          1 MOL1         0.1036
      16    H11     21.475675   19.284631   23.982980 H          1 MOL1         0.1036
      17    H12     20.188154   18.297549   23.289384 H          1 MOL1         0.1036
@<TRIPOS>BOND
    1     1     2    1
    2     1     3    1
    3     1     4    1
    4     1     5    1
    5     5     6    1
    6     5     7    1
    7     5     8    1
    8     8     9    1
    9     8    10    1
   10     8    11    1
   11    11    12    1
   12    11    13    1
   13    11    14    1
   14    14    15    1
   15    14    16    1
   16    14    17    1
@<TRIPOS>SUBSTRUCTURE
       1 MOL1            1 RESIDUE      1      MOL     
@<SCITEGIC>MOL_PROPERTY
VConf Rank
SciTegic.value.IntegerValue
964

@<SCITEGIC>MOL_PROPERTY
Conf_Id
SciTegic.value.IntegerValue
44

@<SCITEGIC>MOL_PROPERTY
Delta U+W
SciTegic.value.DoubleValue
2.712

@<SCITEGIC>MOL_PROPERTY
U+W
SciTegic.value.DoubleValue
-13.153

@<SCITEGIC>MOL_PROPERTY
Grad RMS
SciTegic.value.DoubleValue
0.000000

@<SCITEGIC>MOL_PROPERTY
U
SciTegic.value.DoubleValue
47.423

@<SCITEGIC>MOL_PROPERTY
W
SciTegic.value.DoubleValue
-60.576

@<SCITEGIC>MOL_PROPERTY
W(PB)
SciTegic.value.DoubleValue
-62.262

@<SCITEGIC>MOL_PROPERTY
W(SA)
SciTegic.value.DoubleValue
1.687

@<SCITEGIC>MOL_PROPERTY
Valence
SciTegic.value.DoubleValue
2.414

@<SCITEGIC>MOL_PROPERTY
Coulomb
SciTegic.value.DoubleValue
44.831

@<SCITEGIC>MOL_PROPERTY
VdW
SciTegic.value.DoubleValue
0.178

@<SCITEGIC>MOL_PROPERTY
VdW6
SciTegic.value.DoubleValue
-3.743

@<SCITEGIC>MOL_PROPERTY
VdW12
SciTegic.value.DoubleValue
3.922

@<SCITEGIC>MOL_PROPERTY
Bond
SciTegic.value.DoubleValue
0.138

@<SCITEGIC>MOL_PROPERTY
Angle
SciTegic.value.DoubleValue
0.941

@<SCITEGIC>MOL_PROPERTY
Pdih
SciTegic.value.DoubleValue
1.335

@<SCITEGIC>MOL_PROPERTY
Idih
SciTegic.value.DoubleValue
0.000

@<SCITEGIC>MOL_PROPERTY
Tether
SciTegic.value.DoubleValue
0.000

@<TRIPOS>MOLECULE
guest-1_confgen4.mol2 : confsearch ligand conformer 965
          17          16           1
SMALL
USER_CHARGES
 
@<TRIPOS>ATOM
       1    N1      18.535771   18.077859   22.652658 N.4        1 MOL1        -0.5891
       2    H1      18.996375   18.734711   23.288926 H          1 MOL1         0.3726
       3    H2      18.846731   17.136803   22.911687 H          1 MOL1         0.3726
       4    H3      17.531098   18.124295   22.850505 H          1 MOL1         0.3726
       5    C1      18.840007   18.394749   21.201149 C.3        1 MOL1         0.0314
       6    H4      18.457716   19.395688   20.984866 H          1 MOL1         0.0999
       7    H5      18.288938   17.681581   20.582074 H          1 MOL1         0.0999
       8    C2      20.340403   18.323668   20.849470 C.3        1 MOL1        -0.1308
       9    H6      20.705339   17.304149   21.031545 H          1 MOL1         0.1025
      10    H7      20.457543   18.502399   19.772373 H          1 MOL1         0.1025
      11    C3      21.219205   19.331521   21.631452 C.3        1 MOL1        -0.1243
      12    H8      22.266809   19.197849   21.327212 H          1 MOL1         0.1025
      13    H9      21.184983   19.107721   22.706345 H          1 MOL1         0.1025
      14    C4      20.810907   20.803306   21.392832 C.3        1 MOL1        -0.2258
      15    H10     20.838360   21.052096   20.323993 H          1 MOL1         0.1036
      16    H11     21.498922   21.482815   21.912323 H          1 MOL1         0.1036
      17    H12     19.799535   21.007553   21.766139 H          1 MOL1         0.1036
@<TRIPOS>BOND
    1     1     2    1
    2     1     3    1
    3     1     4    1
    4     1     5    1
    5     5     6    1
    6     5     7    1
    7     5     8    1
    8     8     9    1
    9     8    10    1
   10     8    11    1
   11    11    12    1
   12    11    13    1
   13    11    14    1
   14    14    15    1
   15    14    16    1
   16    14    17    1
@<TRIPOS>SUBSTRUCTURE
       1 MOL1            1 RESIDUE      1      MOL     
@<SCITEGIC>MOL_PROPERTY
VConf Rank
SciTegic.value.IntegerValue
965

@<SCITEGIC>MOL_PROPERTY
Conf_Id
SciTegic.value.IntegerValue
1

@<SCITEGIC>MOL_PROPERTY
Delta U+W
SciTegic.value.DoubleValue
0.685

@<SCITEGIC>MOL_PROPERTY
U+W
SciTegic.value.DoubleValue
-15.179

@<SCITEGIC>MOL_PROPERTY
Grad RMS
SciTegic.value.DoubleValue
0.000000

@<SCITEGIC>MOL_PROPERTY
U
SciTegic.value.DoubleValue
45.697

@<SCITEGIC>MOL_PROPERTY
W
SciTegic.value.DoubleValue
-60.876

@<SCITEGIC>MOL_PROPERTY
W(PB)
SciTegic.value.DoubleValue
-62.586

@<SCITEGIC>MOL_PROPERTY
W(SA)
SciTegic.value.DoubleValue
1.710

@<SCITEGIC>MOL_PROPERTY
Valence
SciTegic.value.DoubleValue
1.263

@<SCITEGIC>MOL_PROPERTY
Coulomb
SciTegic.value.DoubleValue
44.179

@<SCITEGIC>MOL_PROPERTY
VdW
SciTegic.value.DoubleValue
0.255

@<SCITEGIC>MOL_PROPERTY
VdW6
SciTegic.value.DoubleValue
-3.552

@<SCITEGIC>MOL_PROPERTY
VdW12
SciTegic.value.DoubleValue
3.807

@<SCITEGIC>MOL_PROPERTY
Bond
SciTegic.value.DoubleValue
0.125

@<SCITEGIC>MOL_PROPERTY
Angle
SciTegic.value.DoubleValue
0.616

@<SCITEGIC>MOL_PROPERTY
Pdih
SciTegic.value.DoubleValue
0.521

@<SCITEGIC>MOL_PROPERTY
Idih
SciTegic.value.DoubleValue
0.000

@<SCITEGIC>MOL_PROPERTY
Tether
SciTegic.value.DoubleValue
0.000

@<TRIPOS>MOLECULE
guest-1_confgen4.mol2 : confsearch ligand conformer 966
          17          16           1
SMALL
USER_CHARGES
 
@<TRIPOS>ATOM
       1    N1      19.196803   20.825068   22.036906 N.4        1 MOL1        -0.5891
       2    H1      19.440149   21.107310   22.991108 H          1 MOL1         0.3726
       3    H2      18.421210   20.160181   22.106392 H          1 MOL1         0.3726
       4    H3      18.834665   21.658785   21.563156 H          1 MOL1         0.3726
       5    C1      20.382991   20.229875   21.303039 C.3        1 MOL1         0.0314
       6    H4      21.153456   21.002598   21.233604 H          1 MOL1         0.0999
       7    H5      20.063444   19.979410   20.288169 H          1 MOL1         0.0999
       8    C2      20.974094   18.979197   21.985917 C.3        1 MOL1        -0.1308
       9    H6      21.861248   18.658394   21.423915 H          1 MOL1         0.1025
      10    H7      21.329261   19.250200   22.988993 H          1 MOL1         0.1025
      11    C3      19.983584   17.793159   22.094368 C.3        1 MOL1        -0.1243
      12    H8      19.132337   18.069166   22.731434 H          1 MOL1         0.1025
      13    H9      20.485420   16.958597   22.603848 H          1 MOL1         0.1025
      14    C4      19.469193   17.306270   20.720272 C.3        1 MOL1        -0.2258
      15    H10     18.824070   16.426298   20.840411 H          1 MOL1         0.1036
      16    H11     20.302841   17.023009   20.064635 H          1 MOL1         0.1036
      17    H12     18.881221   18.080521   20.211573 H          1 MOL1         0.1036
@<TRIPOS>BOND
    1     1     2    1
    2     1     3    1
    3     1     4    1
    4     1     5    1
    5     5     6    1
    6     5     7    1
    7     5     8    1
    8     8     9    1
    9     8    10    1
   10     8    11    1
   11    11    12    1
   12    11    13    1
   13    11    14    1
   14    14    15    1
   15    14    16    1
   16    14    17    1
@<TRIPOS>SUBSTRUCTURE
       1 MOL1            1 RESIDUE      1      MOL     
@<SCITEGIC>MOL_PROPERTY
VConf Rank
SciTegic.value.IntegerValue
966

@<SCITEGIC>MOL_PROPERTY
Conf_Id
SciTegic.value.IntegerValue
43

@<SCITEGIC>MOL_PROPERTY
Delta U+W
SciTegic.value.DoubleValue
0.642

@<SCITEGIC>MOL_PROPERTY
U+W
SciTegic.value.DoubleValue
-15.222

@<SCITEGIC>MOL_PROPERTY
Grad RMS
SciTegic.value.DoubleValue
0.000000

@<SCITEGIC>MOL_PROPERTY
U
SciTegic.value.DoubleValue
45.697

@<SCITEGIC>MOL_PROPERTY
W
SciTegic.value.DoubleValue
-60.919

@<SCITEGIC>MOL_PROPERTY
W(PB)
SciTegic.value.DoubleValue
-62.631

@<SCITEGIC>MOL_PROPERTY
W(SA)
SciTegic.value.DoubleValue
1.712

@<SCITEGIC>MOL_PROPERTY
Valence
SciTegic.value.DoubleValue
1.262

@<SCITEGIC>MOL_PROPERTY
Coulomb
SciTegic.value.DoubleValue
44.179

@<SCITEGIC>MOL_PROPERTY
VdW
SciTegic.value.DoubleValue
0.255

@<SCITEGIC>MOL_PROPERTY
VdW6
SciTegic.value.DoubleValue
-3.552

@<SCITEGIC>MOL_PROPERTY
VdW12
SciTegic.value.DoubleValue
3.807

@<SCITEGIC>MOL_PROPERTY
Bond
SciTegic.value.DoubleValue
0.125

@<SCITEGIC>MOL_PROPERTY
Angle
SciTegic.value.DoubleValue
0.616

@<SCITEGIC>MOL_PROPERTY
Pdih
SciTegic.value.DoubleValue
0.521

@<SCITEGIC>MOL_PROPERTY
Idih
SciTegic.value.DoubleValue
0.000

@<SCITEGIC>MOL_PROPERTY
Tether
SciTegic.value.DoubleValue
0.000

@<TRIPOS>MOLECULE
guest-1_confgen4.mol2 : confsearch ligand conformer 967
          17          16           1
SMALL
USER_CHARGES
 
@<TRIPOS>ATOM
       1    N1      21.143621   16.967030   20.711666 N.4        1 MOL1        -0.5891
       2    H1      20.496028   16.273178   21.097526 H          1 MOL1         0.3726
       3    H2      21.955888   16.999724   21.335246 H          1 MOL1         0.3726
       4    H3      21.473755   16.597285   19.814332 H          1 MOL1         0.3726
       5    C1      20.492330   18.326743   20.555600 C.3        1 MOL1         0.0314
       6    H4      19.657550   18.223024   19.857097 H          1 MOL1         0.0999
       7    H5      21.227362   19.004292   20.112677 H          1 MOL1         0.0999
       8    C2      19.984312   18.912389   21.885712 C.3        1 MOL1        -0.1308
       9    H6      19.258039   18.222057   22.335113 H          1 MOL1         0.1025
      10    H7      20.822465   19.000775   22.589756 H          1 MOL1         0.1025
      11    C3      19.328714   20.295984   21.682291 C.3        1 MOL1        -0.1243
      12    H8      18.491722   20.208764   20.975069 H          1 MOL1         0.1025
      13    H9      20.054247   20.986551   21.229474 H          1 MOL1         0.1025
      14    C4      18.816595   20.889729   23.012387 C.3        1 MOL1        -0.2258
      15    H10     18.354773   21.871685   22.846464 H          1 MOL1         0.1036
      16    H11     19.637912   21.021201   23.728878 H          1 MOL1         0.1036
      17    H12     18.063094   20.237234   23.472491 H          1 MOL1         0.1036
@<TRIPOS>BOND
    1     1     2    1
    2     1     3    1
    3     1     4    1
    4     1     5    1
    5     5     6    1
    6     5     7    1
    7     5     8    1
    8     8     9    1
    9     8    10    1
   10     8    11    1
   11    11    12    1
   12    11    13    1
   13    11    14    1
   14    14    15    1
   15    14    16    1
   16    14    17    1
@<TRIPOS>SUBSTRUCTURE
       1 MOL1            1 RESIDUE      1      MOL     
@<SCITEGIC>MOL_PROPERTY
VConf Rank
SciTegic.value.IntegerValue
967

@<SCITEGIC>MOL_PROPERTY
Conf_Id
SciTegic.value.IntegerValue
7

@<SCITEGIC>MOL_PROPERTY
Delta U+W
SciTegic.value.DoubleValue
0.000

@<SCITEGIC>MOL_PROPERTY
U+W
SciTegic.value.DoubleValue
-15.865

@<SCITEGIC>MOL_PROPERTY
Grad RMS
SciTegic.value.DoubleValue
0.000000

@<SCITEGIC>MOL_PROPERTY
U
SciTegic.value.DoubleValue
44.664

@<SCITEGIC>MOL_PROPERTY
W
SciTegic.value.DoubleValue
-60.529

@<SCITEGIC>MOL_PROPERTY
W(PB)
SciTegic.value.DoubleValue
-62.309

@<SCITEGIC>MOL_PROPERTY
W(SA)
SciTegic.value.DoubleValue
1.780

@<SCITEGIC>MOL_PROPERTY
Valence
SciTegic.value.DoubleValue
0.872

@<SCITEGIC>MOL_PROPERTY
Coulomb
SciTegic.value.DoubleValue
43.648

@<SCITEGIC>MOL_PROPERTY
VdW
SciTegic.value.DoubleValue
0.144

@<SCITEGIC>MOL_PROPERTY
VdW6
SciTegic.value.DoubleValue
-2.370

@<SCITEGIC>MOL_PROPERTY
VdW12
SciTegic.value.DoubleValue
2.515

@<SCITEGIC>MOL_PROPERTY
Bond
SciTegic.value.DoubleValue
0.080

@<SCITEGIC>MOL_PROPERTY
Angle
SciTegic.value.DoubleValue
0.376

@<SCITEGIC>MOL_PROPERTY
Pdih
SciTegic.value.DoubleValue
0.416

@<SCITEGIC>MOL_PROPERTY
Idih
SciTegic.value.DoubleValue
0.000

@<SCITEGIC>MOL_PROPERTY
Tether
SciTegic.value.DoubleValue
0.000

@<TRIPOS>MOLECULE
guest-1_confgen4.mol2 : confsearch ligand conformer 968
          17          16           1
SMALL
USER_CHARGES
 
@<TRIPOS>ATOM
       1    N1      18.634016   19.872273   23.504266 N.4        1 MOL1        -0.5891
       2    H1      17.672229   20.041531   23.194484 H          1 MOL1         0.3726
       3    H2      19.080443   20.787985   23.612988 H          1 MOL1         0.3726
       4    H3      18.575233   19.458190   24.440174 H          1 MOL1         0.3726
       5    C1      19.392613   18.981789   22.540459 C.3        1 MOL1         0.0314
       6    H4      18.879963   18.017063   22.496841 H          1 MOL1         0.0999
       7    H5      20.393380   18.820173   22.949340 H          1 MOL1         0.0999
       8    C2      19.500050   19.575178   21.122607 C.3        1 MOL1        -0.1308
       9    H6      18.490641   19.770910   20.737044 H          1 MOL1         0.1025
      10    H7      20.013457   20.544901   21.166650 H          1 MOL1         0.1025
      11    C3      20.241777   18.639881   20.139210 C.3        1 MOL1        -0.1243
      12    H8      20.212858   19.083544   19.134069 H          1 MOL1         0.1025
      13    H9      19.710331   17.680321   20.068567 H          1 MOL1         0.1025
      14    C4      21.714402   18.389663   20.537608 C.3        1 MOL1        -0.2258
      15    H10     22.267116   19.334471   20.621093 H          1 MOL1         0.1036
      16    H11     22.218087   17.772908   19.782013 H          1 MOL1         0.1036
      17    H12     21.788785   17.862992   21.497387 H          1 MOL1         0.1036
@<TRIPOS>BOND
    1     1     2    1
    2     1     3    1
    3     1     4    1
    4     1     5    1
    5     5     6    1
    6     5     7    1
    7     5     8    1
    8     8     9    1
    9     8    10    1
   10     8    11    1
   11    11    12    1
   12    11    13    1
   13    11    14    1
   14    14    15    1
   15    14    16    1
   16    14    17    1
@<TRIPOS>SUBSTRUCTURE
       1 MOL1            1 RESIDUE      1      MOL     
@<SCITEGIC>MOL_PROPERTY
VConf Rank
SciTegic.value.IntegerValue
968

@<SCITEGIC>MOL_PROPERTY
Conf_Id
SciTegic.value.IntegerValue
36

@<SCITEGIC>MOL_PROPERTY
Delta U+W
SciTegic.value.DoubleValue
0.275

@<SCITEGIC>MOL_PROPERTY
U+W
SciTegic.value.DoubleValue
-15.590

@<SCITEGIC>MOL_PROPERTY
Grad RMS
SciTegic.value.DoubleValue
0.000000

@<SCITEGIC>MOL_PROPERTY
U
SciTegic.value.DoubleValue
45.174

@<SCITEGIC>MOL_PROPERTY
W
SciTegic.value.DoubleValue
-60.765

@<SCITEGIC>MOL_PROPERTY
W(PB)
SciTegic.value.DoubleValue
-62.518

@<SCITEGIC>MOL_PROPERTY
W(SA)
SciTegic.value.DoubleValue
1.754

@<SCITEGIC>MOL_PROPERTY
Valence
SciTegic.value.DoubleValue
1.161

@<SCITEGIC>MOL_PROPERTY
Coulomb
SciTegic.value.DoubleValue
43.789

@<SCITEGIC>MOL_PROPERTY
VdW
SciTegic.value.DoubleValue
0.224

@<SCITEGIC>MOL_PROPERTY
VdW6
SciTegic.value.DoubleValue
-2.897

@<SCITEGIC>MOL_PROPERTY
VdW12
SciTegic.value.DoubleValue
3.121

@<SCITEGIC>MOL_PROPERTY
Bond
SciTegic.value.DoubleValue
0.100

@<SCITEGIC>MOL_PROPERTY
Angle
SciTegic.value.DoubleValue
0.500

@<SCITEGIC>MOL_PROPERTY
Pdih
SciTegic.value.DoubleValue
0.561

@<SCITEGIC>MOL_PROPERTY
Idih
SciTegic.value.DoubleValue
0.000

@<SCITEGIC>MOL_PROPERTY
Tether
SciTegic.value.DoubleValue
0.000

@<TRIPOS>MOLECULE
guest-1_confgen4.mol2 : confsearch ligand conformer 969
          17          16           1
SMALL
USER_CHARGES
 
@<TRIPOS>ATOM
       1    N1      18.102106   18.789273   21.392255 N.4        1 MOL1        -0.5891
       2    H1      18.322230   19.395099   22.186840 H          1 MOL1         0.3726
       3    H2      17.871954   17.866046   21.771944 H          1 MOL1         0.3726
       4    H3      17.247063   19.154842   20.960880 H          1 MOL1         0.3726
       5    C1      19.248965   18.721496   20.402230 C.3        1 MOL1         0.0314
       6    H4      19.404335   19.718239   19.980726 H          1 MOL1         0.0999
       7    H5      18.933676   18.057725   19.592576 H          1 MOL1         0.0999
       8    C2      20.571318   18.194495   20.998271 C.3        1 MOL1        -0.1308
       9    H6      20.375024   17.320734   21.633676 H          1 MOL1         0.1025
      10    H7      21.191035   17.830083   20.168210 H          1 MOL1         0.1025
      11    C3      21.392638   19.253723   21.776843 C.3        1 MOL1        -0.1243
      12    H8      21.636665   20.094132   21.111872 H          1 MOL1         0.1025
      13    H9      22.353755   18.804161   22.063438 H          1 MOL1         0.1025
      14    C4      20.700450   19.789190   23.050826 C.3        1 MOL1        -0.2258
      15    H10     19.843507   20.427158   22.805219 H          1 MOL1         0.1036
      16    H11     21.400058   20.400526   23.635609 H          1 MOL1         0.1036
      17    H12     20.358418   18.967793   23.693846 H          1 MOL1         0.1036
@<TRIPOS>BOND
    1     1     2    1
    2     1     3    1
    3     1     4    1
    4     1     5    1
    5     5     6    1
    6     5     7    1
    7     5     8    1
    8     8     9    1
    9     8    10    1
   10     8    11    1
   11    11    12    1
   12    11    13    1
   13    11    14    1
   14    14    15    1
   15    14    16    1
   16    14    17    1
@<TRIPOS>SUBSTRUCTURE
       1 MOL1            1 RESIDUE      1      MOL     
@<SCITEGIC>MOL_PROPERTY
VConf Rank
SciTegic.value.IntegerValue
969

@<SCITEGIC>MOL_PROPERTY
Conf_Id
SciTegic.value.IntegerValue
19

@<SCITEGIC>MOL_PROPERTY
Delta U+W
SciTegic.value.DoubleValue
2.662

@<SCITEGIC>MOL_PROPERTY
U+W
SciTegic.value.DoubleValue
-13.203

@<SCITEGIC>MOL_PROPERTY
Grad RMS
SciTegic.value.DoubleValue
0.000000

@<SCITEGIC>MOL_PROPERTY
U
SciTegic.value.DoubleValue
47.423

@<SCITEGIC>MOL_PROPERTY
W
SciTegic.value.DoubleValue
-60.626

@<SCITEGIC>MOL_PROPERTY
W(PB)
SciTegic.value.DoubleValue
-62.328

@<SCITEGIC>MOL_PROPERTY
W(SA)
SciTegic.value.DoubleValue
1.702

@<SCITEGIC>MOL_PROPERTY
Valence
SciTegic.value.DoubleValue
2.414

@<SCITEGIC>MOL_PROPERTY
Coulomb
SciTegic.value.DoubleValue
44.831

@<SCITEGIC>MOL_PROPERTY
VdW
SciTegic.value.DoubleValue
0.178

@<SCITEGIC>MOL_PROPERTY
VdW6
SciTegic.value.DoubleValue
-3.743

@<SCITEGIC>MOL_PROPERTY
VdW12
SciTegic.value.DoubleValue
3.921

@<SCITEGIC>MOL_PROPERTY
Bond
SciTegic.value.DoubleValue
0.138

@<SCITEGIC>MOL_PROPERTY
Angle
SciTegic.value.DoubleValue
0.941

@<SCITEGIC>MOL_PROPERTY
Pdih
SciTegic.value.DoubleValue
1.335

@<SCITEGIC>MOL_PROPERTY
Idih
SciTegic.value.DoubleValue
0.000

@<SCITEGIC>MOL_PROPERTY
Tether
SciTegic.value.DoubleValue
0.000

@<TRIPOS>MOLECULE
guest-1_confgen4.mol2 : confsearch ligand conformer 970
          17          16           1
SMALL
USER_CHARGES
 
@<TRIPOS>ATOM
       1    N1      20.446636   20.832035   21.590735 N.4        1 MOL1        -0.5891
       2    H1      20.192761   21.809068   21.412473 H          1 MOL1         0.3726
       3    H2      21.465321   20.804195   21.695557 H          1 MOL1         0.3726
       4    H3      20.043887   20.575705   22.495684 H          1 MOL1         0.3726
       5    C1      19.968902   19.913751   20.482329 C.3        1 MOL1         0.0314
       6    H4      20.444404   20.253628   19.558252 H          1 MOL1         0.0999
       7    H5      18.888175   20.035754   20.370761 H          1 MOL1         0.0999
       8    C2      20.306360   18.424102   20.702962 C.3        1 MOL1        -0.1308
       9    H6      20.274346   17.925120   19.725292 H          1 MOL1         0.1025
      10    H7      21.339891   18.321933   21.059478 H          1 MOL1         0.1025
      11    C3      19.332836   17.678088   21.650811 C.3        1 MOL1        -0.1243
      12    H8      19.600695   16.612143   21.652815 H          1 MOL1         0.1025
      13    H9      18.311092   17.733787   21.249614 H          1 MOL1         0.1025
      14    C4      19.342228   18.190630   23.108923 C.3        1 MOL1        -0.2258
      15    H10     20.363650   18.237205   23.508524 H          1 MOL1         0.1036
      16    H11     18.763230   17.516108   23.753079 H          1 MOL1         0.1036
      17    H12     18.884798   19.183593   23.189313 H          1 MOL1         0.1036
@<TRIPOS>BOND
    1     1     2    1
    2     1     3    1
    3     1     4    1
    4     1     5    1
    5     5     6    1
    6     5     7    1
    7     5     8    1
    8     8     9    1
    9     8    10    1
   10     8    11    1
   11    11    12    1
   12    11    13    1
   13    11    14    1
   14    14    15    1
   15    14    16    1
   16    14    17    1
@<TRIPOS>SUBSTRUCTURE
       1 MOL1            1 RESIDUE      1      MOL     
@<SCITEGIC>MOL_PROPERTY
VConf Rank
SciTegic.value.IntegerValue
970

@<SCITEGIC>MOL_PROPERTY
Conf_Id
SciTegic.value.IntegerValue
44

@<SCITEGIC>MOL_PROPERTY
Delta U+W
SciTegic.value.DoubleValue
2.712

@<SCITEGIC>MOL_PROPERTY
U+W
SciTegic.value.DoubleValue
-13.153

@<SCITEGIC>MOL_PROPERTY
Grad RMS
SciTegic.value.DoubleValue
0.000000

@<SCITEGIC>MOL_PROPERTY
U
SciTegic.value.DoubleValue
47.423

@<SCITEGIC>MOL_PROPERTY
W
SciTegic.value.DoubleValue
-60.576

@<SCITEGIC>MOL_PROPERTY
W(PB)
SciTegic.value.DoubleValue
-62.262

@<SCITEGIC>MOL_PROPERTY
W(SA)
SciTegic.value.DoubleValue
1.687

@<SCITEGIC>MOL_PROPERTY
Valence
SciTegic.value.DoubleValue
2.414

@<SCITEGIC>MOL_PROPERTY
Coulomb
SciTegic.value.DoubleValue
44.831

@<SCITEGIC>MOL_PROPERTY
VdW
SciTegic.value.DoubleValue
0.178

@<SCITEGIC>MOL_PROPERTY
VdW6
SciTegic.value.DoubleValue
-3.743

@<SCITEGIC>MOL_PROPERTY
VdW12
SciTegic.value.DoubleValue
3.922

@<SCITEGIC>MOL_PROPERTY
Bond
SciTegic.value.DoubleValue
0.138

@<SCITEGIC>MOL_PROPERTY
Angle
SciTegic.value.DoubleValue
0.941

@<SCITEGIC>MOL_PROPERTY
Pdih
SciTegic.value.DoubleValue
1.335

@<SCITEGIC>MOL_PROPERTY
Idih
SciTegic.value.DoubleValue
0.000

@<SCITEGIC>MOL_PROPERTY
Tether
SciTegic.value.DoubleValue
0.000

@<TRIPOS>MOLECULE
guest-1_confgen4.mol2 : confsearch ligand conformer 971
          17          16           1
SMALL
USER_CHARGES
 
@<TRIPOS>ATOM
       1    N1      20.623764   18.762959   23.435639 N.4        1 MOL1        -0.5891
       2    H1      20.556105   17.839989   22.997466 H          1 MOL1         0.3726
       3    H2      19.879264   18.820586   24.136908 H          1 MOL1         0.3726
       4    H3      21.513700   18.788510   23.943604 H          1 MOL1         0.3726
       5    C1      20.525649   19.878778   22.413298 C.3        1 MOL1         0.0314
       6    H4      21.361830   19.775629   21.716902 H          1 MOL1         0.0999
       7    H5      20.642885   20.827661   22.943784 H          1 MOL1         0.0999
       8    C2      19.195898   19.891757   21.631305 C.3        1 MOL1        -0.1308
       9    H6      18.365415   20.036522   22.334931 H          1 MOL1         0.1025
      10    H7      19.188338   20.765138   20.965758 H          1 MOL1         0.1025
      11    C3      18.944172   18.612219   20.795260 C.3        1 MOL1        -0.1243
      12    H8      17.973442   18.706014   20.288515 H          1 MOL1         0.1025
      13    H9      18.857412   17.739760   21.457032 H          1 MOL1         0.1025
      14    C4      20.040697   18.355419   19.736259 C.3        1 MOL1        -0.2258
      15    H10     20.145903   19.214407   19.060879 H          1 MOL1         0.1036
      16    H11     19.788570   17.478677   19.125748 H          1 MOL1         0.1036
      17    H12     21.015597   18.164739   20.202263 H          1 MOL1         0.1036
@<TRIPOS>BOND
    1     1     2    1
    2     1     3    1
    3     1     4    1
    4     1     5    1
    5     5     6    1
    6     5     7    1
    7     5     8    1
    8     8     9    1
    9     8    10    1
   10     8    11    1
   11    11    12    1
   12    11    13    1
   13    11    14    1
   14    14    15    1
   15    14    16    1
   16    14    17    1
@<TRIPOS>SUBSTRUCTURE
       1 MOL1            1 RESIDUE      1      MOL     
@<SCITEGIC>MOL_PROPERTY
VConf Rank
SciTegic.value.IntegerValue
971

@<SCITEGIC>MOL_PROPERTY
Conf_Id
SciTegic.value.IntegerValue
1

@<SCITEGIC>MOL_PROPERTY
Delta U+W
SciTegic.value.DoubleValue
0.685

@<SCITEGIC>MOL_PROPERTY
U+W
SciTegic.value.DoubleValue
-15.179

@<SCITEGIC>MOL_PROPERTY
Grad RMS
SciTegic.value.DoubleValue
0.000000

@<SCITEGIC>MOL_PROPERTY
U
SciTegic.value.DoubleValue
45.697

@<SCITEGIC>MOL_PROPERTY
W
SciTegic.value.DoubleValue
-60.876

@<SCITEGIC>MOL_PROPERTY
W(PB)
SciTegic.value.DoubleValue
-62.586

@<SCITEGIC>MOL_PROPERTY
W(SA)
SciTegic.value.DoubleValue
1.710

@<SCITEGIC>MOL_PROPERTY
Valence
SciTegic.value.DoubleValue
1.263

@<SCITEGIC>MOL_PROPERTY
Coulomb
SciTegic.value.DoubleValue
44.179

@<SCITEGIC>MOL_PROPERTY
VdW
SciTegic.value.DoubleValue
0.255

@<SCITEGIC>MOL_PROPERTY
VdW6
SciTegic.value.DoubleValue
-3.552

@<SCITEGIC>MOL_PROPERTY
VdW12
SciTegic.value.DoubleValue
3.807

@<SCITEGIC>MOL_PROPERTY
Bond
SciTegic.value.DoubleValue
0.125

@<SCITEGIC>MOL_PROPERTY
Angle
SciTegic.value.DoubleValue
0.616

@<SCITEGIC>MOL_PROPERTY
Pdih
SciTegic.value.DoubleValue
0.521

@<SCITEGIC>MOL_PROPERTY
Idih
SciTegic.value.DoubleValue
0.000

@<SCITEGIC>MOL_PROPERTY
Tether
SciTegic.value.DoubleValue
0.000

@<TRIPOS>MOLECULE
guest-1_confgen4.mol2 : confsearch ligand conformer 972
          17          16           1
SMALL
USER_CHARGES
 
@<TRIPOS>ATOM
       1    N1      19.551518   20.508400   20.326708 N.4        1 MOL1        -0.5891
       2    H1      18.711804   21.030875   20.593686 H          1 MOL1         0.3726
       3    H2      19.239397   19.641154   19.880711 H          1 MOL1         0.3726
       4    H3      20.028947   21.060102   19.606741 H          1 MOL1         0.3726
       5    C1      20.450680   20.235908   21.517135 C.3        1 MOL1         0.0314
       6    H4      20.774125   21.200475   21.917798 H          1 MOL1         0.0999
       7    H5      21.336401   19.704819   21.159017 H          1 MOL1         0.0999
       8    C2      19.771786   19.419693   22.636428 C.3        1 MOL1        -0.1308
       9    H6      20.471404   19.327698   23.477781 H          1 MOL1         0.1025
      10    H7      18.907581   19.979813   23.017432 H          1 MOL1         0.1025
      11    C3      19.315069   18.006229   22.197011 C.3        1 MOL1        -0.1243
      12    H8      18.545264   18.083579   21.417222 H          1 MOL1         0.1025
      13    H9      18.833126   17.508939   23.050439 H          1 MOL1         0.1025
      14    C4      20.479513   17.122990   21.693269 C.3        1 MOL1        -0.2258
      15    H10     20.121616   16.112878   21.455464 H          1 MOL1         0.1036
      16    H11     21.262674   17.029387   22.456791 H          1 MOL1         0.1036
      17    H12     20.935081   17.535099   20.784109 H          1 MOL1         0.1036
@<TRIPOS>BOND
    1     1     2    1
    2     1     3    1
    3     1     4    1
    4     1     5    1
    5     5     6    1
    6     5     7    1
    7     5     8    1
    8     8     9    1
    9     8    10    1
   10     8    11    1
   11    11    12    1
   12    11    13    1
   13    11    14    1
   14    14    15    1
   15    14    16    1
   16    14    17    1
@<TRIPOS>SUBSTRUCTURE
       1 MOL1            1 RESIDUE      1      MOL     
@<SCITEGIC>MOL_PROPERTY
VConf Rank
SciTegic.value.IntegerValue
972

@<SCITEGIC>MOL_PROPERTY
Conf_Id
SciTegic.value.IntegerValue
43

@<SCITEGIC>MOL_PROPERTY
Delta U+W
SciTegic.value.DoubleValue
0.642

@<SCITEGIC>MOL_PROPERTY
U+W
SciTegic.value.DoubleValue
-15.222

@<SCITEGIC>MOL_PROPERTY
Grad RMS
SciTegic.value.DoubleValue
0.000000

@<SCITEGIC>MOL_PROPERTY
U
SciTegic.value.DoubleValue
45.697

@<SCITEGIC>MOL_PROPERTY
W
SciTegic.value.DoubleValue
-60.919

@<SCITEGIC>MOL_PROPERTY
W(PB)
SciTegic.value.DoubleValue
-62.631

@<SCITEGIC>MOL_PROPERTY
W(SA)
SciTegic.value.DoubleValue
1.712

@<SCITEGIC>MOL_PROPERTY
Valence
SciTegic.value.DoubleValue
1.262

@<SCITEGIC>MOL_PROPERTY
Coulomb
SciTegic.value.DoubleValue
44.179

@<SCITEGIC>MOL_PROPERTY
VdW
SciTegic.value.DoubleValue
0.255

@<SCITEGIC>MOL_PROPERTY
VdW6
SciTegic.value.DoubleValue
-3.552

@<SCITEGIC>MOL_PROPERTY
VdW12
SciTegic.value.DoubleValue
3.807

@<SCITEGIC>MOL_PROPERTY
Bond
SciTegic.value.DoubleValue
0.125

@<SCITEGIC>MOL_PROPERTY
Angle
SciTegic.value.DoubleValue
0.616

@<SCITEGIC>MOL_PROPERTY
Pdih
SciTegic.value.DoubleValue
0.521

@<SCITEGIC>MOL_PROPERTY
Idih
SciTegic.value.DoubleValue
0.000

@<SCITEGIC>MOL_PROPERTY
Tether
SciTegic.value.DoubleValue
0.000

@<TRIPOS>MOLECULE
guest-1_confgen4.mol2 : confsearch ligand conformer 973
          17          16           1
SMALL
USER_CHARGES
 
@<TRIPOS>ATOM
       1    N1      21.649119   20.757895   20.684184 N.4        1 MOL1        -0.5891
       2    H1      21.189293   21.605075   21.031376 H          1 MOL1         0.3726
       3    H2      21.403869   20.667088   19.693576 H          1 MOL1         0.3726
       4    H3      22.658718   20.931027   20.724731 H          1 MOL1         0.3726
       5    C1      21.255346   19.530521   21.481588 C.3        1 MOL1         0.0314
       6    H4      21.573326   19.683936   22.516419 H          1 MOL1         0.0999
       7    H5      21.804102   18.675296   21.077879 H          1 MOL1         0.0999
       8    C2      19.743816   19.240703   21.442307 C.3        1 MOL1        -0.1308
       9    H6      19.195311   20.107698   21.834037 H          1 MOL1         0.1025
      10    H7      19.425323   19.102383   20.400472 H          1 MOL1         0.1025
      11    C3      19.385920   17.984170   22.266053 C.3        1 MOL1        -0.1243
      12    H8      19.707481   18.120695   23.308303 H          1 MOL1         0.1025
      13    H9      19.937148   17.116596   21.876452 H          1 MOL1         0.1025
      14    C4      17.871138   17.687210   22.231338 C.3        1 MOL1        -0.2258
      15    H10     17.637816   16.791755   22.821906 H          1 MOL1         0.1036
      16    H11     17.526080   17.511768   21.204030 H          1 MOL1         0.1036
      17    H12     17.294603   18.523828   22.647132 H          1 MOL1         0.1036
@<TRIPOS>BOND
    1     1     2    1
    2     1     3    1
    3     1     4    1
    4     1     5    1
    5     5     6    1
    6     5     7    1
    7     5     8    1
    8     8     9    1
    9     8    10    1
   10     8    11    1
   11    11    12    1
   12    11    13    1
   13    11    14    1
   14    14    15    1
   15    14    16    1
   16    14    17    1
@<TRIPOS>SUBSTRUCTURE
       1 MOL1            1 RESIDUE      1      MOL     
@<SCITEGIC>MOL_PROPERTY
VConf Rank
SciTegic.value.IntegerValue
973

@<SCITEGIC>MOL_PROPERTY
Conf_Id
SciTegic.value.IntegerValue
7

@<SCITEGIC>MOL_PROPERTY
Delta U+W
SciTegic.value.DoubleValue
0.000

@<SCITEGIC>MOL_PROPERTY
U+W
SciTegic.value.DoubleValue
-15.865

@<SCITEGIC>MOL_PROPERTY
Grad RMS
SciTegic.value.DoubleValue
0.000000

@<SCITEGIC>MOL_PROPERTY
U
SciTegic.value.DoubleValue
44.664

@<SCITEGIC>MOL_PROPERTY
W
SciTegic.value.DoubleValue
-60.529

@<SCITEGIC>MOL_PROPERTY
W(PB)
SciTegic.value.DoubleValue
-62.309

@<SCITEGIC>MOL_PROPERTY
W(SA)
SciTegic.value.DoubleValue
1.780

@<SCITEGIC>MOL_PROPERTY
Valence
SciTegic.value.DoubleValue
0.872

@<SCITEGIC>MOL_PROPERTY
Coulomb
SciTegic.value.DoubleValue
43.648

@<SCITEGIC>MOL_PROPERTY
VdW
SciTegic.value.DoubleValue
0.144

@<SCITEGIC>MOL_PROPERTY
VdW6
SciTegic.value.DoubleValue
-2.370

@<SCITEGIC>MOL_PROPERTY
VdW12
SciTegic.value.DoubleValue
2.515

@<SCITEGIC>MOL_PROPERTY
Bond
SciTegic.value.DoubleValue
0.080

@<SCITEGIC>MOL_PROPERTY
Angle
SciTegic.value.DoubleValue
0.376

@<SCITEGIC>MOL_PROPERTY
Pdih
SciTegic.value.DoubleValue
0.416

@<SCITEGIC>MOL_PROPERTY
Idih
SciTegic.value.DoubleValue
0.000

@<SCITEGIC>MOL_PROPERTY
Tether
SciTegic.value.DoubleValue
0.000

@<TRIPOS>MOLECULE
guest-1_confgen4.mol2 : confsearch ligand conformer 974
          17          16           1
SMALL
USER_CHARGES
 
@<TRIPOS>ATOM
       1    N1      18.746986   18.245661   23.545978 N.4        1 MOL1        -0.5891
       2    H1      19.419278   17.784700   24.166612 H          1 MOL1         0.3726
       3    H2      18.219928   17.506308   23.071411 H          1 MOL1         0.3726
       4    H3      18.082732   18.744232   24.146842 H          1 MOL1         0.3726
       5    C1      19.427709   19.177635   22.563432 C.3        1 MOL1         0.0314
       6    H4      19.942685   19.954162   23.135459 H          1 MOL1         0.0999
       7    H5      18.651201   19.654471   21.959693 H          1 MOL1         0.0999
       8    C2      20.433745   18.459670   21.643446 C.3        1 MOL1        -0.1308
       9    H6      21.186133   17.950913   22.260663 H          1 MOL1         0.1025
      10    H7      19.916824   17.678633   21.070156 H          1 MOL1         0.1025
      11    C3      21.150028   19.427352   20.672604 C.3        1 MOL1        -0.1243
      12    H8      21.906864   18.868024   20.104860 H          1 MOL1         0.1025
      13    H9      21.695471   20.190425   21.245660 H          1 MOL1         0.1025
      14    C4      20.182848   20.114938   19.681773 C.3        1 MOL1        -0.2258
      15    H10     19.620167   19.373329   19.099940 H          1 MOL1         0.1036
      16    H11     20.739195   20.743333   18.974239 H          1 MOL1         0.1036
      17    H12     19.463588   20.759987   20.202030 H          1 MOL1         0.1036
@<TRIPOS>BOND
    1     1     2    1
    2     1     3    1
    3     1     4    1
    4     1     5    1
    5     5     6    1
    6     5     7    1
    7     5     8    1
    8     8     9    1
    9     8    10    1
   10     8    11    1
   11    11    12    1
   12    11    13    1
   13    11    14    1
   14    14    15    1
   15    14    16    1
   16    14    17    1
@<TRIPOS>SUBSTRUCTURE
       1 MOL1            1 RESIDUE      1      MOL     
@<SCITEGIC>MOL_PROPERTY
VConf Rank
SciTegic.value.IntegerValue
974

@<SCITEGIC>MOL_PROPERTY
Conf_Id
SciTegic.value.IntegerValue
36

@<SCITEGIC>MOL_PROPERTY
Delta U+W
SciTegic.value.DoubleValue
0.275

@<SCITEGIC>MOL_PROPERTY
U+W
SciTegic.value.DoubleValue
-15.590

@<SCITEGIC>MOL_PROPERTY
Grad RMS
SciTegic.value.DoubleValue
0.000000

@<SCITEGIC>MOL_PROPERTY
U
SciTegic.value.DoubleValue
45.174

@<SCITEGIC>MOL_PROPERTY
W
SciTegic.value.DoubleValue
-60.765

@<SCITEGIC>MOL_PROPERTY
W(PB)
SciTegic.value.DoubleValue
-62.518

@<SCITEGIC>MOL_PROPERTY
W(SA)
SciTegic.value.DoubleValue
1.754

@<SCITEGIC>MOL_PROPERTY
Valence
SciTegic.value.DoubleValue
1.161

@<SCITEGIC>MOL_PROPERTY
Coulomb
SciTegic.value.DoubleValue
43.789

@<SCITEGIC>MOL_PROPERTY
VdW
SciTegic.value.DoubleValue
0.224

@<SCITEGIC>MOL_PROPERTY
VdW6
SciTegic.value.DoubleValue
-2.897

@<SCITEGIC>MOL_PROPERTY
VdW12
SciTegic.value.DoubleValue
3.121

@<SCITEGIC>MOL_PROPERTY
Bond
SciTegic.value.DoubleValue
0.100

@<SCITEGIC>MOL_PROPERTY
Angle
SciTegic.value.DoubleValue
0.500

@<SCITEGIC>MOL_PROPERTY
Pdih
SciTegic.value.DoubleValue
0.561

@<SCITEGIC>MOL_PROPERTY
Idih
SciTegic.value.DoubleValue
0.000

@<SCITEGIC>MOL_PROPERTY
Tether
SciTegic.value.DoubleValue
0.000

@<TRIPOS>MOLECULE
guest-1_confgen4.mol2 : confsearch ligand conformer 975
          17          16           1
SMALL
USER_CHARGES
 
@<TRIPOS>ATOM
       1    N1      19.485602   20.432714   22.678939 N.4        1 MOL1        -0.5891
       2    H1      20.472360   20.464386   22.410329 H          1 MOL1         0.3726
       3    H2      19.445427   20.070396   23.636327 H          1 MOL1         0.3726
       4    H3      19.150186   21.400778   22.713166 H          1 MOL1         0.3726
       5    C1      18.669118   19.586278   21.721375 C.3        1 MOL1         0.0314
       6    H4      18.692604   20.056300   20.734546 H          1 MOL1         0.0999
       7    H5      17.636233   19.604341   22.079648 H          1 MOL1         0.0999
       8    C2      19.138030   18.120005   21.612841 C.3        1 MOL1        -0.1308
       9    H6      19.354349   17.719898   22.612265 H          1 MOL1         0.1025
      10    H7      18.298016   17.527514   21.226606 H          1 MOL1         0.1025
      11    C3      20.349038   17.900544   20.670503 C.3        1 MOL1        -0.1243
      12    H8      20.097332   18.247260   19.658350 H          1 MOL1         0.1025
      13    H9      20.529681   16.819765   20.585202 H          1 MOL1         0.1025
      14    C4      21.654789   18.582301   21.138588 C.3        1 MOL1        -0.2258
      15    H10     21.596293   19.672695   21.042183 H          1 MOL1         0.1036
      16    H11     22.499997   18.249288   20.522242 H          1 MOL1         0.1036
      17    H12     21.884141   18.330252   22.182150 H          1 MOL1         0.1036
@<TRIPOS>BOND
    1     1     2    1
    2     1     3    1
    3     1     4    1
    4     1     5    1
    5     5     6    1
    6     5     7    1
    7     5     8    1
    8     8     9    1
    9     8    10    1
   10     8    11    1
   11    11    12    1
   12    11    13    1
   13    11    14    1
   14    14    15    1
   15    14    16    1
   16    14    17    1
@<TRIPOS>SUBSTRUCTURE
       1 MOL1            1 RESIDUE      1      MOL     
@<SCITEGIC>MOL_PROPERTY
VConf Rank
SciTegic.value.IntegerValue
975

@<SCITEGIC>MOL_PROPERTY
Conf_Id
SciTegic.value.IntegerValue
19

@<SCITEGIC>MOL_PROPERTY
Delta U+W
SciTegic.value.DoubleValue
2.662

@<SCITEGIC>MOL_PROPERTY
U+W
SciTegic.value.DoubleValue
-13.203

@<SCITEGIC>MOL_PROPERTY
Grad RMS
SciTegic.value.DoubleValue
0.000000

@<SCITEGIC>MOL_PROPERTY
U
SciTegic.value.DoubleValue
47.423

@<SCITEGIC>MOL_PROPERTY
W
SciTegic.value.DoubleValue
-60.626

@<SCITEGIC>MOL_PROPERTY
W(PB)
SciTegic.value.DoubleValue
-62.328

@<SCITEGIC>MOL_PROPERTY
W(SA)
SciTegic.value.DoubleValue
1.702

@<SCITEGIC>MOL_PROPERTY
Valence
SciTegic.value.DoubleValue
2.414

@<SCITEGIC>MOL_PROPERTY
Coulomb
SciTegic.value.DoubleValue
44.831

@<SCITEGIC>MOL_PROPERTY
VdW
SciTegic.value.DoubleValue
0.178

@<SCITEGIC>MOL_PROPERTY
VdW6
SciTegic.value.DoubleValue
-3.743

@<SCITEGIC>MOL_PROPERTY
VdW12
SciTegic.value.DoubleValue
3.921

@<SCITEGIC>MOL_PROPERTY
Bond
SciTegic.value.DoubleValue
0.138

@<SCITEGIC>MOL_PROPERTY
Angle
SciTegic.value.DoubleValue
0.941

@<SCITEGIC>MOL_PROPERTY
Pdih
SciTegic.value.DoubleValue
1.335

@<SCITEGIC>MOL_PROPERTY
Idih
SciTegic.value.DoubleValue
0.000

@<SCITEGIC>MOL_PROPERTY
Tether
SciTegic.value.DoubleValue
0.000

@<TRIPOS>MOLECULE
guest-1_confgen4.mol2 : confsearch ligand conformer 976
          17          16           1
SMALL
USER_CHARGES
 
@<TRIPOS>ATOM
       1    N1      20.852726   17.967994   22.746686 N.4        1 MOL1        -0.5891
       2    H1      21.743567   17.492243   22.922436 H          1 MOL1         0.3726
       3    H2      20.178549   17.595085   23.421892 H          1 MOL1         0.3726
       4    H3      20.988835   18.956691   22.972065 H          1 MOL1         0.3726
       5    C1      20.383322   17.776609   21.317326 C.3        1 MOL1         0.0314
       6    H4      20.261793   16.701146   21.161934 H          1 MOL1         0.0999
       7    H5      21.168533   18.128725   20.642967 H          1 MOL1         0.0999
       8    C2      19.053398   18.485914   20.985967 C.3        1 MOL1        -0.1308
       9    H6      18.622107   17.993871   20.104078 H          1 MOL1         0.1025
      10    H7      18.332450   18.331469   21.799668 H          1 MOL1         0.1025
      11    C3      19.192466   19.996707   20.668369 C.3        1 MOL1        -0.1243
      12    H8      18.211843   20.374240   20.346128 H          1 MOL1         0.1025
      13    H9      19.867189   20.133678   19.811626 H          1 MOL1         0.1025
      14    C4      19.685228   20.856366   21.854561 C.3        1 MOL1        -0.2258
      15    H10     19.088017   20.670519   22.756755 H          1 MOL1         0.1036
      16    H11     19.599304   21.923694   21.612521 H          1 MOL1         0.1036
      17    H12     20.739886   20.661896   22.081623 H          1 MOL1         0.1036
@<TRIPOS>BOND
    1     1     2    1
    2     1     3    1
    3     1     4    1
    4     1     5    1
    5     5     6    1
    6     5     7    1
    7     5     8    1
    8     8     9    1
    9     8    10    1
   10     8    11    1
   11    11    12    1
   12    11    13    1
   13    11    14    1
   14    14    15    1
   15    14    16    1
   16    14    17    1
@<TRIPOS>SUBSTRUCTURE
       1 MOL1            1 RESIDUE      1      MOL     
@<SCITEGIC>MOL_PROPERTY
VConf Rank
SciTegic.value.IntegerValue
976

@<SCITEGIC>MOL_PROPERTY
Conf_Id
SciTegic.value.IntegerValue
44

@<SCITEGIC>MOL_PROPERTY
Delta U+W
SciTegic.value.DoubleValue
2.712

@<SCITEGIC>MOL_PROPERTY
U+W
SciTegic.value.DoubleValue
-13.153

@<SCITEGIC>MOL_PROPERTY
Grad RMS
SciTegic.value.DoubleValue
0.000000

@<SCITEGIC>MOL_PROPERTY
U
SciTegic.value.DoubleValue
47.423

@<SCITEGIC>MOL_PROPERTY
W
SciTegic.value.DoubleValue
-60.576

@<SCITEGIC>MOL_PROPERTY
W(PB)
SciTegic.value.DoubleValue
-62.262

@<SCITEGIC>MOL_PROPERTY
W(SA)
SciTegic.value.DoubleValue
1.687

@<SCITEGIC>MOL_PROPERTY
Valence
SciTegic.value.DoubleValue
2.414

@<SCITEGIC>MOL_PROPERTY
Coulomb
SciTegic.value.DoubleValue
44.831

@<SCITEGIC>MOL_PROPERTY
VdW
SciTegic.value.DoubleValue
0.178

@<SCITEGIC>MOL_PROPERTY
VdW6
SciTegic.value.DoubleValue
-3.743

@<SCITEGIC>MOL_PROPERTY
VdW12
SciTegic.value.DoubleValue
3.922

@<SCITEGIC>MOL_PROPERTY
Bond
SciTegic.value.DoubleValue
0.138

@<SCITEGIC>MOL_PROPERTY
Angle
SciTegic.value.DoubleValue
0.941

@<SCITEGIC>MOL_PROPERTY
Pdih
SciTegic.value.DoubleValue
1.335

@<SCITEGIC>MOL_PROPERTY
Idih
SciTegic.value.DoubleValue
0.000

@<SCITEGIC>MOL_PROPERTY
Tether
SciTegic.value.DoubleValue
0.000

@<TRIPOS>MOLECULE
guest-1_confgen4.mol2 : confsearch ligand conformer 977
          17          16           1
SMALL
USER_CHARGES
 
@<TRIPOS>ATOM
       1    N1      17.959549   19.145419   21.908963 N.4        1 MOL1        -0.5891
       2    H1      18.229554   19.989511   21.396077 H          1 MOL1         0.3726
       3    H2      17.745609   19.430103   22.869465 H          1 MOL1         0.3726
       4    H3      17.083160   18.811467   21.495337 H          1 MOL1         0.3726
       5    C1      19.045036   18.087465   21.860888 C.3        1 MOL1         0.0314
       6    H4      19.201942   17.809343   20.815501 H          1 MOL1         0.0999
       7    H5      18.675346   17.206693   22.392967 H          1 MOL1         0.0999
       8    C2      20.381714   18.537858   22.485674 C.3        1 MOL1        -0.1308
       9    H6      20.221967   18.776026   23.545630 H          1 MOL1         0.1025
      10    H7      21.081869   17.692197   22.464611 H          1 MOL1         0.1025
      11    C3      21.030100   19.753566   21.777715 C.3        1 MOL1        -0.1243
      12    H8      21.963822   20.009310   22.297967 H          1 MOL1         0.1025
      13    H9      20.380747   20.634748   21.869973 H          1 MOL1         0.1025
      14    C4      21.341924   19.490447   20.286631 C.3        1 MOL1        -0.2258
      15    H10     21.991582   18.613538   20.168132 H          1 MOL1         0.1036
      16    H11     21.858322   20.351778   19.843449 H          1 MOL1         0.1036
      17    H12     20.426400   19.319294   19.706570 H          1 MOL1         0.1036
@<TRIPOS>BOND
    1     1     2    1
    2     1     3    1
    3     1     4    1
    4     1     5    1
    5     5     6    1
    6     5     7    1
    7     5     8    1
    8     8     9    1
    9     8    10    1
   10     8    11    1
   11    11    12    1
   12    11    13    1
   13    11    14    1
   14    14    15    1
   15    14    16    1
   16    14    17    1
@<TRIPOS>SUBSTRUCTURE
       1 MOL1            1 RESIDUE      1      MOL     
@<SCITEGIC>MOL_PROPERTY
VConf Rank
SciTegic.value.IntegerValue
977

@<SCITEGIC>MOL_PROPERTY
Conf_Id
SciTegic.value.IntegerValue
1

@<SCITEGIC>MOL_PROPERTY
Delta U+W
SciTegic.value.DoubleValue
0.685

@<SCITEGIC>MOL_PROPERTY
U+W
SciTegic.value.DoubleValue
-15.179

@<SCITEGIC>MOL_PROPERTY
Grad RMS
SciTegic.value.DoubleValue
0.000000

@<SCITEGIC>MOL_PROPERTY
U
SciTegic.value.DoubleValue
45.697

@<SCITEGIC>MOL_PROPERTY
W
SciTegic.value.DoubleValue
-60.876

@<SCITEGIC>MOL_PROPERTY
W(PB)
SciTegic.value.DoubleValue
-62.586

@<SCITEGIC>MOL_PROPERTY
W(SA)
SciTegic.value.DoubleValue
1.710

@<SCITEGIC>MOL_PROPERTY
Valence
SciTegic.value.DoubleValue
1.263

@<SCITEGIC>MOL_PROPERTY
Coulomb
SciTegic.value.DoubleValue
44.179

@<SCITEGIC>MOL_PROPERTY
VdW
SciTegic.value.DoubleValue
0.255

@<SCITEGIC>MOL_PROPERTY
VdW6
SciTegic.value.DoubleValue
-3.552

@<SCITEGIC>MOL_PROPERTY
VdW12
SciTegic.value.DoubleValue
3.807

@<SCITEGIC>MOL_PROPERTY
Bond
SciTegic.value.DoubleValue
0.125

@<SCITEGIC>MOL_PROPERTY
Angle
SciTegic.value.DoubleValue
0.616

@<SCITEGIC>MOL_PROPERTY
Pdih
SciTegic.value.DoubleValue
0.521

@<SCITEGIC>MOL_PROPERTY
Idih
SciTegic.value.DoubleValue
0.000

@<SCITEGIC>MOL_PROPERTY
Tether
SciTegic.value.DoubleValue
0.000

@<TRIPOS>MOLECULE
guest-1_confgen4.mol2 : confsearch ligand conformer 978
          17          16           1
SMALL
USER_CHARGES
 
@<TRIPOS>ATOM
       1    N1      19.080289   17.927723   23.019147 N.4        1 MOL1        -0.5891
       2    H1      19.703010   17.177606   23.333663 H          1 MOL1         0.3726
       3    H2      18.675540   17.630899   22.126666 H          1 MOL1         0.3726
       4    H3      18.310858   17.978553   23.694469 H          1 MOL1         0.3726
       5    C1      19.808449   19.252011   22.893043 C.3        1 MOL1         0.0314
       6    H4      20.179613   19.523685   23.884995 H          1 MOL1         0.0999
       7    H5      19.083732   20.009852   22.584388 H          1 MOL1         0.0999
       8    C2      20.986447   19.222623   21.897364 C.3        1 MOL1        -0.1308
       9    H6      21.490091   20.198134   21.920243 H          1 MOL1         0.1025
      10    H7      21.727939   18.487806   22.237925 H          1 MOL1         0.1025
      11    C3      20.572097   18.897476   20.440603 C.3        1 MOL1        -0.1243
      12    H8      20.149235   17.885159   20.385316 H          1 MOL1         0.1025
      13    H9      21.472911   18.884478   19.811104 H          1 MOL1         0.1025
      14    C4      19.565581   19.914786   19.855963 C.3        1 MOL1        -0.2258
      15    H10     19.351277   19.683570   18.804496 H          1 MOL1         0.1036
      16    H11     19.966468   20.935814   19.899065 H          1 MOL1         0.1036
      17    H12     18.612451   19.897865   20.399291 H          1 MOL1         0.1036
@<TRIPOS>BOND
    1     1     2    1
    2     1     3    1
    3     1     4    1
    4     1     5    1
    5     5     6    1
    6     5     7    1
    7     5     8    1
    8     8     9    1
    9     8    10    1
   10     8    11    1
   11    11    12    1
   12    11    13    1
   13    11    14    1
   14    14    15    1
   15    14    16    1
   16    14    17    1
@<TRIPOS>SUBSTRUCTURE
       1 MOL1            1 RESIDUE      1      MOL     
@<SCITEGIC>MOL_PROPERTY
VConf Rank
SciTegic.value.IntegerValue
978

@<SCITEGIC>MOL_PROPERTY
Conf_Id
SciTegic.value.IntegerValue
43

@<SCITEGIC>MOL_PROPERTY
Delta U+W
SciTegic.value.DoubleValue
0.642

@<SCITEGIC>MOL_PROPERTY
U+W
SciTegic.value.DoubleValue
-15.222

@<SCITEGIC>MOL_PROPERTY
Grad RMS
SciTegic.value.DoubleValue
0.000000

@<SCITEGIC>MOL_PROPERTY
U
SciTegic.value.DoubleValue
45.697

@<SCITEGIC>MOL_PROPERTY
W
SciTegic.value.DoubleValue
-60.919

@<SCITEGIC>MOL_PROPERTY
W(PB)
SciTegic.value.DoubleValue
-62.631

@<SCITEGIC>MOL_PROPERTY
W(SA)
SciTegic.value.DoubleValue
1.712

@<SCITEGIC>MOL_PROPERTY
Valence
SciTegic.value.DoubleValue
1.262

@<SCITEGIC>MOL_PROPERTY
Coulomb
SciTegic.value.DoubleValue
44.179

@<SCITEGIC>MOL_PROPERTY
VdW
SciTegic.value.DoubleValue
0.255

@<SCITEGIC>MOL_PROPERTY
VdW6
SciTegic.value.DoubleValue
-3.552

@<SCITEGIC>MOL_PROPERTY
VdW12
SciTegic.value.DoubleValue
3.807

@<SCITEGIC>MOL_PROPERTY
Bond
SciTegic.value.DoubleValue
0.125

@<SCITEGIC>MOL_PROPERTY
Angle
SciTegic.value.DoubleValue
0.616

@<SCITEGIC>MOL_PROPERTY
Pdih
SciTegic.value.DoubleValue
0.521

@<SCITEGIC>MOL_PROPERTY
Idih
SciTegic.value.DoubleValue
0.000

@<SCITEGIC>MOL_PROPERTY
Tether
SciTegic.value.DoubleValue
0.000

@<TRIPOS>MOLECULE
guest-1_confgen4.mol2 : confsearch ligand conformer 979
          17          16           1
SMALL
USER_CHARGES
 
@<TRIPOS>ATOM
       1    N1      22.331138   18.266398   22.165471 N.4        1 MOL1        -0.5891
       2    H1      22.609854   17.998724   21.216596 H          1 MOL1         0.3726
       3    H2      22.070142   17.405766   22.656277 H          1 MOL1         0.3726
       4    H3      23.170208   18.629172   22.629437 H          1 MOL1         0.3726
       5    C1      21.205726   19.281677   22.161733 C.3        1 MOL1         0.0314
       6    H4      21.563449   20.180295   21.651789 H          1 MOL1         0.0999
       7    H5      20.983110   19.542711   23.199918 H          1 MOL1         0.0999
       8    C2      19.928437   18.769047   21.471803 C.3        1 MOL1        -0.1308
       9    H6      20.159244   18.493360   20.434154 H          1 MOL1         0.1025
      10    H7      19.580822   17.858065   21.977040 H          1 MOL1         0.1025
      11    C3      18.808547   19.832551   21.489864 C.3        1 MOL1        -0.1243
      12    H8      19.157084   20.745871   20.987175 H          1 MOL1         0.1025
      13    H9      18.579312   20.111300   22.528168 H          1 MOL1         0.1025
      14    C4      17.524026   19.325384   20.799398 C.3        1 MOL1        -0.2258
      15    H10     16.741443   20.094842   20.822795 H          1 MOL1         0.1036
      16    H11     17.131754   18.431479   21.301656 H          1 MOL1         0.1036
      17    H12     17.714110   19.071002   19.748510 H          1 MOL1         0.1036
@<TRIPOS>BOND
    1     1     2    1
    2     1     3    1
    3     1     4    1
    4     1     5    1
    5     5     6    1
    6     5     7    1
    7     5     8    1
    8     8     9    1
    9     8    10    1
   10     8    11    1
   11    11    12    1
   12    11    13    1
   13    11    14    1
   14    14    15    1
   15    14    16    1
   16    14    17    1
@<TRIPOS>SUBSTRUCTURE
       1 MOL1            1 RESIDUE      1      MOL     
@<SCITEGIC>MOL_PROPERTY
VConf Rank
SciTegic.value.IntegerValue
979

@<SCITEGIC>MOL_PROPERTY
Conf_Id
SciTegic.value.IntegerValue
7

@<SCITEGIC>MOL_PROPERTY
Delta U+W
SciTegic.value.DoubleValue
0.000

@<SCITEGIC>MOL_PROPERTY
U+W
SciTegic.value.DoubleValue
-15.865

@<SCITEGIC>MOL_PROPERTY
Grad RMS
SciTegic.value.DoubleValue
0.000000

@<SCITEGIC>MOL_PROPERTY
U
SciTegic.value.DoubleValue
44.664

@<SCITEGIC>MOL_PROPERTY
W
SciTegic.value.DoubleValue
-60.529

@<SCITEGIC>MOL_PROPERTY
W(PB)
SciTegic.value.DoubleValue
-62.309

@<SCITEGIC>MOL_PROPERTY
W(SA)
SciTegic.value.DoubleValue
1.780

@<SCITEGIC>MOL_PROPERTY
Valence
SciTegic.value.DoubleValue
0.872

@<SCITEGIC>MOL_PROPERTY
Coulomb
SciTegic.value.DoubleValue
43.648

@<SCITEGIC>MOL_PROPERTY
VdW
SciTegic.value.DoubleValue
0.144

@<SCITEGIC>MOL_PROPERTY
VdW6
SciTegic.value.DoubleValue
-2.370

@<SCITEGIC>MOL_PROPERTY
VdW12
SciTegic.value.DoubleValue
2.515

@<SCITEGIC>MOL_PROPERTY
Bond
SciTegic.value.DoubleValue
0.080

@<SCITEGIC>MOL_PROPERTY
Angle
SciTegic.value.DoubleValue
0.376

@<SCITEGIC>MOL_PROPERTY
Pdih
SciTegic.value.DoubleValue
0.416

@<SCITEGIC>MOL_PROPERTY
Idih
SciTegic.value.DoubleValue
0.000

@<SCITEGIC>MOL_PROPERTY
Tether
SciTegic.value.DoubleValue
0.000

@<TRIPOS>MOLECULE
guest-1_confgen4.mol2 : confsearch ligand conformer 980
          17          16           1
SMALL
USER_CHARGES
 
@<TRIPOS>ATOM
       1    N1      18.916751   16.906777   21.724020 N.4        1 MOL1        -0.5891
       2    H1      19.597830   16.214429   21.397778 H          1 MOL1         0.3726
       3    H2      18.232598   17.033093   20.971940 H          1 MOL1         0.3726
       4    H3      18.416512   16.481944   22.511498 H          1 MOL1         0.3726
       5    C1      19.578075   18.213315   22.115128 C.3        1 MOL1         0.0314
       6    H4      20.268891   18.009455   22.937699 H          1 MOL1         0.0999
       7    H5      18.799285   18.887735   22.480478 H          1 MOL1         0.0999
       8    C2      20.339461   18.879641   20.953122 C.3        1 MOL1        -0.1308
       9    H6      21.092041   18.179100   20.567449 H          1 MOL1         0.1025
      10    H7      19.645941   19.082859   20.126308 H          1 MOL1         0.1025
      11    C3      21.042199   20.191258   21.374818 C.3        1 MOL1        -0.1243
      12    H8      21.629416   20.570248   20.526570 H          1 MOL1         0.1025
      13    H9      21.761185   19.983864   22.179945 H          1 MOL1         0.1025
      14    C4      20.052293   21.287051   21.832292 C.3        1 MOL1        -0.2258
      15    H10     19.318155   21.509137   21.046898 H          1 MOL1         0.1036
      16    H11     20.587512   22.217315   22.062847 H          1 MOL1         0.1036
      17    H12     19.507237   20.986550   22.736008 H          1 MOL1         0.1036
@<TRIPOS>BOND
    1     1     2    1
    2     1     3    1
    3     1     4    1
    4     1     5    1
    5     5     6    1
    6     5     7    1
    7     5     8    1
    8     8     9    1
    9     8    10    1
   10     8    11    1
   11    11    12    1
   12    11    13    1
   13    11    14    1
   14    14    15    1
   15    14    16    1
   16    14    17    1
@<TRIPOS>SUBSTRUCTURE
       1 MOL1            1 RESIDUE      1      MOL     
@<SCITEGIC>MOL_PROPERTY
VConf Rank
SciTegic.value.IntegerValue
980

@<SCITEGIC>MOL_PROPERTY
Conf_Id
SciTegic.value.IntegerValue
36

@<SCITEGIC>MOL_PROPERTY
Delta U+W
SciTegic.value.DoubleValue
0.275

@<SCITEGIC>MOL_PROPERTY
U+W
SciTegic.value.DoubleValue
-15.590

@<SCITEGIC>MOL_PROPERTY
Grad RMS
SciTegic.value.DoubleValue
0.000000

@<SCITEGIC>MOL_PROPERTY
U
SciTegic.value.DoubleValue
45.174

@<SCITEGIC>MOL_PROPERTY
W
SciTegic.value.DoubleValue
-60.765

@<SCITEGIC>MOL_PROPERTY
W(PB)
SciTegic.value.DoubleValue
-62.518

@<SCITEGIC>MOL_PROPERTY
W(SA)
SciTegic.value.DoubleValue
1.754

@<SCITEGIC>MOL_PROPERTY
Valence
SciTegic.value.DoubleValue
1.161

@<SCITEGIC>MOL_PROPERTY
Coulomb
SciTegic.value.DoubleValue
43.789

@<SCITEGIC>MOL_PROPERTY
VdW
SciTegic.value.DoubleValue
0.224

@<SCITEGIC>MOL_PROPERTY
VdW6
SciTegic.value.DoubleValue
-2.897

@<SCITEGIC>MOL_PROPERTY
VdW12
SciTegic.value.DoubleValue
3.121

@<SCITEGIC>MOL_PROPERTY
Bond
SciTegic.value.DoubleValue
0.100

@<SCITEGIC>MOL_PROPERTY
Angle
SciTegic.value.DoubleValue
0.500

@<SCITEGIC>MOL_PROPERTY
Pdih
SciTegic.value.DoubleValue
0.561

@<SCITEGIC>MOL_PROPERTY
Idih
SciTegic.value.DoubleValue
0.000

@<SCITEGIC>MOL_PROPERTY
Tether
SciTegic.value.DoubleValue
0.000

@<TRIPOS>MOLECULE
guest-1_confgen4.mol2 : confsearch ligand conformer 981
          17          16           1
SMALL
USER_CHARGES
 
@<TRIPOS>ATOM
       1    N1      21.254126   18.707223   20.318703 N.4        1 MOL1        -0.5891
       2    H1      21.360305   19.621133   20.766295 H          1 MOL1         0.3726
       3    H2      20.804019   18.866129   19.412264 H          1 MOL1         0.3726
       4    H3      22.196709   18.354077   20.124671 H          1 MOL1         0.3726
       5    C1      20.458683   17.747246   21.182267 C.3        1 MOL1         0.0314
       6    H4      21.017753   17.562789   22.103526 H          1 MOL1         0.0999
       7    H5      20.391406   16.804007   20.633347 H          1 MOL1         0.0999
       8    C2      19.034215   18.232729   21.524043 C.3        1 MOL1        -0.1308
       9    H6      18.555687   18.652478   20.629309 H          1 MOL1         0.1025
      10    H7      18.437764   17.352951   21.799875 H          1 MOL1         0.1025
      11    C3      18.963768   19.243146   22.697415 C.3        1 MOL1        -0.1243
      12    H8      19.388570   18.787936   23.603146 H          1 MOL1         0.1025
      13    H9      17.905919   19.438223   22.923003 H          1 MOL1         0.1025
      14    C4      19.665122   20.592577   22.421698 C.3        1 MOL1        -0.2258
      15    H10     20.755385   20.481500   22.395916 H          1 MOL1         0.1036
      16    H11     19.433312   21.311609   23.218199 H          1 MOL1         0.1036
      17    H12     19.330454   21.028965   21.471585 H          1 MOL1         0.1036
@<TRIPOS>BOND
    1     1     2    1
    2     1     3    1
    3     1     4    1
    4     1     5    1
    5     5     6    1
    6     5     7    1
    7     5     8    1
    8     8     9    1
    9     8    10    1
   10     8    11    1
   11    11    12    1
   12    11    13    1
   13    11    14    1
   14    14    15    1
   15    14    16    1
   16    14    17    1
@<TRIPOS>SUBSTRUCTURE
       1 MOL1            1 RESIDUE      1      MOL     
@<SCITEGIC>MOL_PROPERTY
VConf Rank
SciTegic.value.IntegerValue
981

@<SCITEGIC>MOL_PROPERTY
Conf_Id
SciTegic.value.IntegerValue
19

@<SCITEGIC>MOL_PROPERTY
Delta U+W
SciTegic.value.DoubleValue
2.662

@<SCITEGIC>MOL_PROPERTY
U+W
SciTegic.value.DoubleValue
-13.203

@<SCITEGIC>MOL_PROPERTY
Grad RMS
SciTegic.value.DoubleValue
0.000000

@<SCITEGIC>MOL_PROPERTY
U
SciTegic.value.DoubleValue
47.423

@<SCITEGIC>MOL_PROPERTY
W
SciTegic.value.DoubleValue
-60.626

@<SCITEGIC>MOL_PROPERTY
W(PB)
SciTegic.value.DoubleValue
-62.328

@<SCITEGIC>MOL_PROPERTY
W(SA)
SciTegic.value.DoubleValue
1.702

@<SCITEGIC>MOL_PROPERTY
Valence
SciTegic.value.DoubleValue
2.414

@<SCITEGIC>MOL_PROPERTY
Coulomb
SciTegic.value.DoubleValue
44.831

@<SCITEGIC>MOL_PROPERTY
VdW
SciTegic.value.DoubleValue
0.178

@<SCITEGIC>MOL_PROPERTY
VdW6
SciTegic.value.DoubleValue
-3.743

@<SCITEGIC>MOL_PROPERTY
VdW12
SciTegic.value.DoubleValue
3.921

@<SCITEGIC>MOL_PROPERTY
Bond
SciTegic.value.DoubleValue
0.138

@<SCITEGIC>MOL_PROPERTY
Angle
SciTegic.value.DoubleValue
0.941

@<SCITEGIC>MOL_PROPERTY
Pdih
SciTegic.value.DoubleValue
1.335

@<SCITEGIC>MOL_PROPERTY
Idih
SciTegic.value.DoubleValue
0.000

@<SCITEGIC>MOL_PROPERTY
Tether
SciTegic.value.DoubleValue
0.000

@<TRIPOS>MOLECULE
guest-1_confgen4.mol2 : confsearch ligand conformer 982
          17          16           1
SMALL
USER_CHARGES
 
@<TRIPOS>ATOM
       1    N1      19.609691   17.873132   23.003707 N.4        1 MOL1        -0.5891
       2    H1      18.928226   17.429273   23.627741 H          1 MOL1         0.3726
       3    H2      20.538556   17.666798   23.383333 H          1 MOL1         0.3726
       4    H3      19.542770   17.400710   22.098619 H          1 MOL1         0.3726
       5    C1      19.371117   19.365548   22.877945 C.3        1 MOL1         0.0314
       6    H4      19.462128   19.789641   23.881637 H          1 MOL1         0.0999
       7    H5      18.345546   19.526445   22.534990 H          1 MOL1         0.0999
       8    C2      20.356491   20.088345   21.935495 C.3        1 MOL1        -0.1308
       9    H6      20.353933   21.153735   22.201547 H          1 MOL1         0.1025
      10    H7      21.379690   19.734614   22.118983 H          1 MOL1         0.1025
      11    C3      20.007860   19.972412   20.429600 C.3        1 MOL1        -0.1243
      12    H8      20.705792   20.604894   19.863166 H          1 MOL1         0.1025
      13    H9      19.006457   20.387877   20.249035 H          1 MOL1         0.1025
      14    C4      20.078293   18.534891   19.866173 C.3        1 MOL1        -0.2258
      15    H10     21.034788   18.056229   20.113461 H          1 MOL1         0.1036
      16    H11     19.986639   18.550029   18.772314 H          1 MOL1         0.1036
      17    H12     19.261234   17.912278   20.248857 H          1 MOL1         0.1036
@<TRIPOS>BOND
    1     1     2    1
    2     1     3    1
    3     1     4    1
    4     1     5    1
    5     5     6    1
    6     5     7    1
    7     5     8    1
    8     8     9    1
    9     8    10    1
   10     8    11    1
   11    11    12    1
   12    11    13    1
   13    11    14    1
   14    14    15    1
   15    14    16    1
   16    14    17    1
@<TRIPOS>SUBSTRUCTURE
       1 MOL1            1 RESIDUE      1      MOL     
@<SCITEGIC>MOL_PROPERTY
VConf Rank
SciTegic.value.IntegerValue
982

@<SCITEGIC>MOL_PROPERTY
Conf_Id
SciTegic.value.IntegerValue
44

@<SCITEGIC>MOL_PROPERTY
Delta U+W
SciTegic.value.DoubleValue
2.712

@<SCITEGIC>MOL_PROPERTY
U+W
SciTegic.value.DoubleValue
-13.153

@<SCITEGIC>MOL_PROPERTY
Grad RMS
SciTegic.value.DoubleValue
0.000000

@<SCITEGIC>MOL_PROPERTY
U
SciTegic.value.DoubleValue
47.423

@<SCITEGIC>MOL_PROPERTY
W
SciTegic.value.DoubleValue
-60.576

@<SCITEGIC>MOL_PROPERTY
W(PB)
SciTegic.value.DoubleValue
-62.262

@<SCITEGIC>MOL_PROPERTY
W(SA)
SciTegic.value.DoubleValue
1.687

@<SCITEGIC>MOL_PROPERTY
Valence
SciTegic.value.DoubleValue
2.414

@<SCITEGIC>MOL_PROPERTY
Coulomb
SciTegic.value.DoubleValue
44.831

@<SCITEGIC>MOL_PROPERTY
VdW
SciTegic.value.DoubleValue
0.178

@<SCITEGIC>MOL_PROPERTY
VdW6
SciTegic.value.DoubleValue
-3.743

@<SCITEGIC>MOL_PROPERTY
VdW12
SciTegic.value.DoubleValue
3.922

@<SCITEGIC>MOL_PROPERTY
Bond
SciTegic.value.DoubleValue
0.138

@<SCITEGIC>MOL_PROPERTY
Angle
SciTegic.value.DoubleValue
0.941

@<SCITEGIC>MOL_PROPERTY
Pdih
SciTegic.value.DoubleValue
1.335

@<SCITEGIC>MOL_PROPERTY
Idih
SciTegic.value.DoubleValue
0.000

@<SCITEGIC>MOL_PROPERTY
Tether
SciTegic.value.DoubleValue
0.000

@<TRIPOS>MOLECULE
guest-1_confgen4.mol2 : confsearch ligand conformer 983
          17          16           1
SMALL
USER_CHARGES
 
@<TRIPOS>ATOM
       1    N1      19.572046   19.716300   19.764339 N.4        1 MOL1        -0.5891
       2    H1      19.216860   20.420494   20.417333 H          1 MOL1         0.3726
       3    H2      18.759259   19.258060   19.341526 H          1 MOL1         0.3726
       4    H3      20.053544   20.220727   19.013085 H          1 MOL1         0.3726
       5    C1      20.487238   18.722348   20.453061 C.3        1 MOL1         0.0314
       6    H4      21.343613   19.270708   20.853969 H          1 MOL1         0.0999
       7    H5      20.856337   18.027853   19.693468 H          1 MOL1         0.0999
       8    C2      19.803569   17.926249   21.583876 C.3        1 MOL1        -0.1308
       9    H6      18.970223   17.347345   21.164168 H          1 MOL1         0.1025
      10    H7      20.518238   17.191515   21.977857 H          1 MOL1         0.1025
      11    C3      19.283521   18.805790   22.748141 C.3        1 MOL1        -0.1243
      12    H8      18.802574   18.157343   23.493869 H          1 MOL1         0.1025
      13    H9      18.499658   19.485354   22.387022 H          1 MOL1         0.1025
      14    C4      20.401758   19.620528   23.437740 C.3        1 MOL1        -0.2258
      15    H10     21.197992   18.962253   23.808890 H          1 MOL1         0.1036
      16    H11     20.000389   20.176377   24.295005 H          1 MOL1         0.1036
      17    H12     20.851823   20.349518   22.752201 H          1 MOL1         0.1036
@<TRIPOS>BOND
    1     1     2    1
    2     1     3    1
    3     1     4    1
    4     1     5    1
    5     5     6    1
    6     5     7    1
    7     5     8    1
    8     8     9    1
    9     8    10    1
   10     8    11    1
   11    11    12    1
   12    11    13    1
   13    11    14    1
   14    14    15    1
   15    14    16    1
   16    14    17    1
@<TRIPOS>SUBSTRUCTURE
       1 MOL1            1 RESIDUE      1      MOL     
@<SCITEGIC>MOL_PROPERTY
VConf Rank
SciTegic.value.IntegerValue
983

@<SCITEGIC>MOL_PROPERTY
Conf_Id
SciTegic.value.IntegerValue
1

@<SCITEGIC>MOL_PROPERTY
Delta U+W
SciTegic.value.DoubleValue
0.685

@<SCITEGIC>MOL_PROPERTY
U+W
SciTegic.value.DoubleValue
-15.179

@<SCITEGIC>MOL_PROPERTY
Grad RMS
SciTegic.value.DoubleValue
0.000000

@<SCITEGIC>MOL_PROPERTY
U
SciTegic.value.DoubleValue
45.697

@<SCITEGIC>MOL_PROPERTY
W
SciTegic.value.DoubleValue
-60.876

@<SCITEGIC>MOL_PROPERTY
W(PB)
SciTegic.value.DoubleValue
-62.586

@<SCITEGIC>MOL_PROPERTY
W(SA)
SciTegic.value.DoubleValue
1.710

@<SCITEGIC>MOL_PROPERTY
Valence
SciTegic.value.DoubleValue
1.263

@<SCITEGIC>MOL_PROPERTY
Coulomb
SciTegic.value.DoubleValue
44.179

@<SCITEGIC>MOL_PROPERTY
VdW
SciTegic.value.DoubleValue
0.255

@<SCITEGIC>MOL_PROPERTY
VdW6
SciTegic.value.DoubleValue
-3.552

@<SCITEGIC>MOL_PROPERTY
VdW12
SciTegic.value.DoubleValue
3.807

@<SCITEGIC>MOL_PROPERTY
Bond
SciTegic.value.DoubleValue
0.125

@<SCITEGIC>MOL_PROPERTY
Angle
SciTegic.value.DoubleValue
0.616

@<SCITEGIC>MOL_PROPERTY
Pdih
SciTegic.value.DoubleValue
0.521

@<SCITEGIC>MOL_PROPERTY
Idih
SciTegic.value.DoubleValue
0.000

@<SCITEGIC>MOL_PROPERTY
Tether
SciTegic.value.DoubleValue
0.000

@<TRIPOS>MOLECULE
guest-1_confgen4.mol2 : confsearch ligand conformer 984
          17          16           1
SMALL
USER_CHARGES
 
@<TRIPOS>ATOM
       1    N1      21.364803   20.396358   21.515663 N.4        1 MOL1        -0.5891
       2    H1      21.771572   20.457133   20.577461 H          1 MOL1         0.3726
       3    H2      21.762983   19.566951   21.965089 H          1 MOL1         0.3726
       4    H3      21.701129   21.210893   22.039195 H          1 MOL1         0.3726
       5    C1      19.849941   20.339546   21.472964 C.3        1 MOL1         0.0314
       6    H4      19.494636   21.267841   21.017370 H          1 MOL1         0.0999
       7    H5      19.482358   20.306009   22.501830 H          1 MOL1         0.0999
       8    C2      19.293886   19.137162   20.682397 C.3        1 MOL1        -0.1308
       9    H6      18.198933   19.213788   20.650619 H          1 MOL1         0.1025
      10    H7      19.635127   19.201863   19.640708 H          1 MOL1         0.1025
      11    C3      19.691166   17.759541   21.268816 C.3        1 MOL1        -0.1243
      12    H8      20.780960   17.629621   21.222723 H          1 MOL1         0.1025
      13    H9      19.264622   16.969121   20.635412 H          1 MOL1         0.1025
      14    C4      19.203639   17.556557   22.721714 C.3        1 MOL1        -0.2258
      15    H10     19.449264   16.545857   23.072601 H          1 MOL1         0.1036
      16    H11     18.115275   17.680462   22.793671 H          1 MOL1         0.1036
      17    H12     19.675691   18.269336   23.409509 H          1 MOL1         0.1036
@<TRIPOS>BOND
    1     1     2    1
    2     1     3    1
    3     1     4    1
    4     1     5    1
    5     5     6    1
    6     5     7    1
    7     5     8    1
    8     8     9    1
    9     8    10    1
   10     8    11    1
   11    11    12    1
   12    11    13    1
   13    11    14    1
   14    14    15    1
   15    14    16    1
   16    14    17    1
@<TRIPOS>SUBSTRUCTURE
       1 MOL1            1 RESIDUE      1      MOL     
@<SCITEGIC>MOL_PROPERTY
VConf Rank
SciTegic.value.IntegerValue
984

@<SCITEGIC>MOL_PROPERTY
Conf_Id
SciTegic.value.IntegerValue
43

@<SCITEGIC>MOL_PROPERTY
Delta U+W
SciTegic.value.DoubleValue
0.642

@<SCITEGIC>MOL_PROPERTY
U+W
SciTegic.value.DoubleValue
-15.222

@<SCITEGIC>MOL_PROPERTY
Grad RMS
SciTegic.value.DoubleValue
0.000000

@<SCITEGIC>MOL_PROPERTY
U
SciTegic.value.DoubleValue
45.697

@<SCITEGIC>MOL_PROPERTY
W
SciTegic.value.DoubleValue
-60.919

@<SCITEGIC>MOL_PROPERTY
W(PB)
SciTegic.value.DoubleValue
-62.631

@<SCITEGIC>MOL_PROPERTY
W(SA)
SciTegic.value.DoubleValue
1.712

@<SCITEGIC>MOL_PROPERTY
Valence
SciTegic.value.DoubleValue
1.262

@<SCITEGIC>MOL_PROPERTY
Coulomb
SciTegic.value.DoubleValue
44.179

@<SCITEGIC>MOL_PROPERTY
VdW
SciTegic.value.DoubleValue
0.255

@<SCITEGIC>MOL_PROPERTY
VdW6
SciTegic.value.DoubleValue
-3.552

@<SCITEGIC>MOL_PROPERTY
VdW12
SciTegic.value.DoubleValue
3.807

@<SCITEGIC>MOL_PROPERTY
Bond
SciTegic.value.DoubleValue
0.125

@<SCITEGIC>MOL_PROPERTY
Angle
SciTegic.value.DoubleValue
0.616

@<SCITEGIC>MOL_PROPERTY
Pdih
SciTegic.value.DoubleValue
0.521

@<SCITEGIC>MOL_PROPERTY
Idih
SciTegic.value.DoubleValue
0.000

@<SCITEGIC>MOL_PROPERTY
Tether
SciTegic.value.DoubleValue
0.000

@<TRIPOS>MOLECULE
guest-1_confgen4.mol2 : confsearch ligand conformer 985
          17          16           1
SMALL
USER_CHARGES
 
@<TRIPOS>ATOM
       1    N1      21.845300   20.384860   22.728242 N.4        1 MOL1        -0.5891
       2    H1      22.299179   19.595260   23.197521 H          1 MOL1         0.3726
       3    H2      21.272175   20.862809   23.430232 H          1 MOL1         0.3726
       4    H3      22.589169   21.036945   22.459257 H          1 MOL1         0.3726
       5    C1      21.026003   19.940480   21.532987 C.3        1 MOL1         0.0314
       6    H4      21.703475   19.469184   20.815746 H          1 MOL1         0.0999
       7    H5      20.599146   20.832218   21.065954 H          1 MOL1         0.0999
       8    C2      19.898331   18.959214   21.901410 C.3        1 MOL1        -0.1308
       9    H6      20.329350   18.071951   22.384088 H          1 MOL1         0.1025
      10    H7      19.228744   19.430342   22.633313 H          1 MOL1         0.1025
      11    C3      19.089411   18.532130   20.656915 C.3        1 MOL1        -0.1243
      12    H8      19.759713   18.063452   19.922503 H          1 MOL1         0.1025
      13    H9      18.660390   19.420164   20.171464 H          1 MOL1         0.1025
      14    C4      17.956369   17.547635   21.018770 C.3        1 MOL1        -0.2258
      15    H10     17.394226   17.256670   20.121896 H          1 MOL1         0.1036
      16    H11     17.249709   18.000864   21.726176 H          1 MOL1         0.1036
      17    H12     18.357717   16.633468   21.475307 H          1 MOL1         0.1036
@<TRIPOS>BOND
    1     1     2    1
    2     1     3    1
    3     1     4    1
    4     1     5    1
    5     5     6    1
    6     5     7    1
    7     5     8    1
    8     8     9    1
    9     8    10    1
   10     8    11    1
   11    11    12    1
   12    11    13    1
   13    11    14    1
   14    14    15    1
   15    14    16    1
   16    14    17    1
@<TRIPOS>SUBSTRUCTURE
       1 MOL1            1 RESIDUE      1      MOL     
@<SCITEGIC>MOL_PROPERTY
VConf Rank
SciTegic.value.IntegerValue
985

@<SCITEGIC>MOL_PROPERTY
Conf_Id
SciTegic.value.IntegerValue
7

@<SCITEGIC>MOL_PROPERTY
Delta U+W
SciTegic.value.DoubleValue
0.000

@<SCITEGIC>MOL_PROPERTY
U+W
SciTegic.value.DoubleValue
-15.865

@<SCITEGIC>MOL_PROPERTY
Grad RMS
SciTegic.value.DoubleValue
0.000000

@<SCITEGIC>MOL_PROPERTY
U
SciTegic.value.DoubleValue
44.664

@<SCITEGIC>MOL_PROPERTY
W
SciTegic.value.DoubleValue
-60.529

@<SCITEGIC>MOL_PROPERTY
W(PB)
SciTegic.value.DoubleValue
-62.309

@<SCITEGIC>MOL_PROPERTY
W(SA)
SciTegic.value.DoubleValue
1.780

@<SCITEGIC>MOL_PROPERTY
Valence
SciTegic.value.DoubleValue
0.872

@<SCITEGIC>MOL_PROPERTY
Coulomb
SciTegic.value.DoubleValue
43.648

@<SCITEGIC>MOL_PROPERTY
VdW
SciTegic.value.DoubleValue
0.144

@<SCITEGIC>MOL_PROPERTY
VdW6
SciTegic.value.DoubleValue
-2.370

@<SCITEGIC>MOL_PROPERTY
VdW12
SciTegic.value.DoubleValue
2.515

@<SCITEGIC>MOL_PROPERTY
Bond
SciTegic.value.DoubleValue
0.080

@<SCITEGIC>MOL_PROPERTY
Angle
SciTegic.value.DoubleValue
0.376

@<SCITEGIC>MOL_PROPERTY
Pdih
SciTegic.value.DoubleValue
0.416

@<SCITEGIC>MOL_PROPERTY
Idih
SciTegic.value.DoubleValue
0.000

@<SCITEGIC>MOL_PROPERTY
Tether
SciTegic.value.DoubleValue
0.000

@<TRIPOS>MOLECULE
guest-1_confgen4.mol2 : confsearch ligand conformer 986
          17          16           1
SMALL
USER_CHARGES
 
@<TRIPOS>ATOM
       1    N1      20.654918   20.114210   23.685109 N.4        1 MOL1        -0.5891
       2    H1      21.671829   20.234411   23.652074 H          1 MOL1         0.3726
       3    H2      20.465855   19.321502   24.306009 H          1 MOL1         0.3726
       4    H3      20.272875   20.947617   24.143715 H          1 MOL1         0.3726
       5    C1      20.062333   19.908426   22.305308 C.3        1 MOL1         0.0314
       6    H4      20.275144   20.800248   21.709679 H          1 MOL1         0.0999
       7    H5      18.978379   19.819982   22.415122 H          1 MOL1         0.0999
       8    C2      20.615348   18.662494   21.587125 C.3        1 MOL1        -0.1308
       9    H6      21.708338   18.742690   21.517717 H          1 MOL1         0.1025
      10    H7      20.403072   17.766973   22.186181 H          1 MOL1         0.1025
      11    C3      20.032454   18.485611   20.165522 C.3        1 MOL1        -0.1243
      12    H8      20.525183   17.630647   19.681543 H          1 MOL1         0.1025
      13    H9      20.272861   19.367028   19.554384 H          1 MOL1         0.1025
      14    C4      18.503985   18.253797   20.163699 C.3        1 MOL1        -0.2258
      15    H10     18.236030   17.380931   20.773150 H          1 MOL1         0.1036
      16    H11     18.143378   18.072631   19.142843 H          1 MOL1         0.1036
      17    H12     17.963400   19.124575   20.555621 H          1 MOL1         0.1036
@<TRIPOS>BOND
    1     1     2    1
    2     1     3    1
    3     1     4    1
    4     1     5    1
    5     5     6    1
    6     5     7    1
    7     5     8    1
    8     8     9    1
    9     8    10    1
   10     8    11    1
   11    11    12    1
   12    11    13    1
   13    11    14    1
   14    14    15    1
   15    14    16    1
   16    14    17    1
@<TRIPOS>SUBSTRUCTURE
       1 MOL1            1 RESIDUE      1      MOL     
@<SCITEGIC>MOL_PROPERTY
VConf Rank
SciTegic.value.IntegerValue
986

@<SCITEGIC>MOL_PROPERTY
Conf_Id
SciTegic.value.IntegerValue
36

@<SCITEGIC>MOL_PROPERTY
Delta U+W
SciTegic.value.DoubleValue
0.275

@<SCITEGIC>MOL_PROPERTY
U+W
SciTegic.value.DoubleValue
-15.590

@<SCITEGIC>MOL_PROPERTY
Grad RMS
SciTegic.value.DoubleValue
0.000000

@<SCITEGIC>MOL_PROPERTY
U
SciTegic.value.DoubleValue
45.174

@<SCITEGIC>MOL_PROPERTY
W
SciTegic.value.DoubleValue
-60.765

@<SCITEGIC>MOL_PROPERTY
W(PB)
SciTegic.value.DoubleValue
-62.518

@<SCITEGIC>MOL_PROPERTY
W(SA)
SciTegic.value.DoubleValue
1.754

@<SCITEGIC>MOL_PROPERTY
Valence
SciTegic.value.DoubleValue
1.161

@<SCITEGIC>MOL_PROPERTY
Coulomb
SciTegic.value.DoubleValue
43.789

@<SCITEGIC>MOL_PROPERTY
VdW
SciTegic.value.DoubleValue
0.224

@<SCITEGIC>MOL_PROPERTY
VdW6
SciTegic.value.DoubleValue
-2.897

@<SCITEGIC>MOL_PROPERTY
VdW12
SciTegic.value.DoubleValue
3.121

@<SCITEGIC>MOL_PROPERTY
Bond
SciTegic.value.DoubleValue
0.100

@<SCITEGIC>MOL_PROPERTY
Angle
SciTegic.value.DoubleValue
0.500

@<SCITEGIC>MOL_PROPERTY
Pdih
SciTegic.value.DoubleValue
0.561

@<SCITEGIC>MOL_PROPERTY
Idih
SciTegic.value.DoubleValue
0.000

@<SCITEGIC>MOL_PROPERTY
Tether
SciTegic.value.DoubleValue
0.000

@<TRIPOS>MOLECULE
guest-1_confgen4.mol2 : confsearch ligand conformer 987
          17          16           1
SMALL
USER_CHARGES
 
@<TRIPOS>ATOM
       1    N1      21.483876   19.429207   22.534973 N.4        1 MOL1        -0.5891
       2    H1      21.600745   18.555605   22.015353 H          1 MOL1         0.3726
       3    H2      21.306205   19.177235   23.511919 H          1 MOL1         0.3726
       4    H3      22.385144   19.917117   22.513033 H          1 MOL1         0.3726
       5    C1      20.367601   20.280064   21.960513 C.3        1 MOL1         0.0314
       6    H4      20.642144   20.574419   20.944007 H          1 MOL1         0.0999
       7    H5      20.309578   21.185705   22.570419 H          1 MOL1         0.0999
       8    C2      18.986413   19.591719   21.949939 C.3        1 MOL1        -0.1308
       9    H6      18.815425   19.078074   22.905272 H          1 MOL1         0.1025
      10    H7      18.221323   20.377076   21.889132 H          1 MOL1         0.1025
      11    C3      18.763353   18.616460   20.765954 C.3        1 MOL1        -0.1243
      12    H8      18.875134   19.157200   19.815624 H          1 MOL1         0.1025
      13    H9      17.721448   18.267896   20.796373 H          1 MOL1         0.1025
      14    C4      19.695130   17.383309   20.769534 C.3        1 MOL1        -0.2258
      15    H10     20.729101   17.659596   20.532373 H          1 MOL1         0.1036
      16    H11     19.372365   16.660315   20.009101 H          1 MOL1         0.1036
      17    H12     19.678214   16.873721   21.741742 H          1 MOL1         0.1036
@<TRIPOS>BOND
    1     1     2    1
    2     1     3    1
    3     1     4    1
    4     1     5    1
    5     5     6    1
    6     5     7    1
    7     5     8    1
    8     8     9    1
    9     8    10    1
   10     8    11    1
   11    11    12    1
   12    11    13    1
   13    11    14    1
   14    14    15    1
   15    14    16    1
   16    14    17    1
@<TRIPOS>SUBSTRUCTURE
       1 MOL1            1 RESIDUE      1      MOL     
@<SCITEGIC>MOL_PROPERTY
VConf Rank
SciTegic.value.IntegerValue
987

@<SCITEGIC>MOL_PROPERTY
Conf_Id
SciTegic.value.IntegerValue
19

@<SCITEGIC>MOL_PROPERTY
Delta U+W
SciTegic.value.DoubleValue
2.662

@<SCITEGIC>MOL_PROPERTY
U+W
SciTegic.value.DoubleValue
-13.203

@<SCITEGIC>MOL_PROPERTY
Grad RMS
SciTegic.value.DoubleValue
0.000000

@<SCITEGIC>MOL_PROPERTY
U
SciTegic.value.DoubleValue
47.423

@<SCITEGIC>MOL_PROPERTY
W
SciTegic.value.DoubleValue
-60.626

@<SCITEGIC>MOL_PROPERTY
W(PB)
SciTegic.value.DoubleValue
-62.328

@<SCITEGIC>MOL_PROPERTY
W(SA)
SciTegic.value.DoubleValue
1.702

@<SCITEGIC>MOL_PROPERTY
Valence
SciTegic.value.DoubleValue
2.414

@<SCITEGIC>MOL_PROPERTY
Coulomb
SciTegic.value.DoubleValue
44.831

@<SCITEGIC>MOL_PROPERTY
VdW
SciTegic.value.DoubleValue
0.178

@<SCITEGIC>MOL_PROPERTY
VdW6
SciTegic.value.DoubleValue
-3.743

@<SCITEGIC>MOL_PROPERTY
VdW12
SciTegic.value.DoubleValue
3.921

@<SCITEGIC>MOL_PROPERTY
Bond
SciTegic.value.DoubleValue
0.138

@<SCITEGIC>MOL_PROPERTY
Angle
SciTegic.value.DoubleValue
0.941

@<SCITEGIC>MOL_PROPERTY
Pdih
SciTegic.value.DoubleValue
1.335

@<SCITEGIC>MOL_PROPERTY
Idih
SciTegic.value.DoubleValue
0.000

@<SCITEGIC>MOL_PROPERTY
Tether
SciTegic.value.DoubleValue
0.000

@<TRIPOS>MOLECULE
guest-1_confgen4.mol2 : confsearch ligand conformer 988
          17          16           1
SMALL
USER_CHARGES
 
@<TRIPOS>ATOM
       1    N1      20.096951   20.363939   20.291917 N.4        1 MOL1        -0.5891
       2    H1      19.639075   21.064613   19.700115 H          1 MOL1         0.3726
       3    H2      21.050570   20.251099   19.935045 H          1 MOL1         0.3726
       4    H3      20.172289   20.764192   21.230515 H          1 MOL1         0.3726
       5    C1      19.339191   19.050251   20.300053 C.3        1 MOL1         0.0314
       6    H4      19.306826   18.693344   19.267044 H          1 MOL1         0.0999
       7    H5      18.312625   19.242527   20.623307 H          1 MOL1         0.0999
       8    C2      19.971124   17.958842   21.189490 C.3        1 MOL1        -0.1308
       9    H6      19.598726   16.986161   20.841557 H          1 MOL1         0.1025
      10    H7      21.058737   17.935804   21.040167 H          1 MOL1         0.1025
      11    C3      19.636541   18.085406   22.697714 C.3        1 MOL1        -0.1243
      12    H8      20.044639   17.207219   23.217553 H          1 MOL1         0.1025
      13    H9      18.547430   18.043367   22.839462 H          1 MOL1         0.1025
      14    C4      20.194765   19.359536   23.371404 C.3        1 MOL1        -0.2258
      15    H10     21.266628   19.481168   23.167767 H          1 MOL1         0.1036
      16    H11     20.067326   19.301228   24.460218 H          1 MOL1         0.1036
      17    H12     19.665766   20.258151   23.033275 H          1 MOL1         0.1036
@<TRIPOS>BOND
    1     1     2    1
    2     1     3    1
    3     1     4    1
    4     1     5    1
    5     5     6    1
    6     5     7    1
    7     5     8    1
    8     8     9    1
    9     8    10    1
   10     8    11    1
   11    11    12    1
   12    11    13    1
   13    11    14    1
   14    14    15    1
   15    14    16    1
   16    14    17    1
@<TRIPOS>SUBSTRUCTURE
       1 MOL1            1 RESIDUE      1      MOL     
@<SCITEGIC>MOL_PROPERTY
VConf Rank
SciTegic.value.IntegerValue
988

@<SCITEGIC>MOL_PROPERTY
Conf_Id
SciTegic.value.IntegerValue
44

@<SCITEGIC>MOL_PROPERTY
Delta U+W
SciTegic.value.DoubleValue
2.712

@<SCITEGIC>MOL_PROPERTY
U+W
SciTegic.value.DoubleValue
-13.153

@<SCITEGIC>MOL_PROPERTY
Grad RMS
SciTegic.value.DoubleValue
0.000000

@<SCITEGIC>MOL_PROPERTY
U
SciTegic.value.DoubleValue
47.423

@<SCITEGIC>MOL_PROPERTY
W
SciTegic.value.DoubleValue
-60.576

@<SCITEGIC>MOL_PROPERTY
W(PB)
SciTegic.value.DoubleValue
-62.262

@<SCITEGIC>MOL_PROPERTY
W(SA)
SciTegic.value.DoubleValue
1.687

@<SCITEGIC>MOL_PROPERTY
Valence
SciTegic.value.DoubleValue
2.414

@<SCITEGIC>MOL_PROPERTY
Coulomb
SciTegic.value.DoubleValue
44.831

@<SCITEGIC>MOL_PROPERTY
VdW
SciTegic.value.DoubleValue
0.178

@<SCITEGIC>MOL_PROPERTY
VdW6
SciTegic.value.DoubleValue
-3.743

@<SCITEGIC>MOL_PROPERTY
VdW12
SciTegic.value.DoubleValue
3.922

@<SCITEGIC>MOL_PROPERTY
Bond
SciTegic.value.DoubleValue
0.138

@<SCITEGIC>MOL_PROPERTY
Angle
SciTegic.value.DoubleValue
0.941

@<SCITEGIC>MOL_PROPERTY
Pdih
SciTegic.value.DoubleValue
1.335

@<SCITEGIC>MOL_PROPERTY
Idih
SciTegic.value.DoubleValue
0.000

@<SCITEGIC>MOL_PROPERTY
Tether
SciTegic.value.DoubleValue
0.000

@<TRIPOS>MOLECULE
guest-1_confgen4.mol2 : confsearch ligand conformer 989
          17          16           1
SMALL
USER_CHARGES
 
@<TRIPOS>ATOM
       1    N1      19.185818   20.352832   22.895998 N.4        1 MOL1        -0.5891
       2    H1      20.109707   20.692011   22.613452 H          1 MOL1         0.3726
       3    H2      19.268563   20.016198   23.859953 H          1 MOL1         0.3726
       4    H3      18.562167   21.166021   22.917252 H          1 MOL1         0.3726
       5    C1      18.673684   19.273556   21.961792 C.3        1 MOL1         0.0314
       6    H4      18.581366   19.705732   20.962039 H          1 MOL1         0.0999
       7    H5      17.673958   18.987501   22.299816 H          1 MOL1         0.0999
       8    C2      19.571916   18.020565   21.906017 C.3        1 MOL1        -0.1308
       9    H6      19.625460   17.570698   22.906268 H          1 MOL1         0.1025
      10    H7      19.092441   17.273158   21.260036 H          1 MOL1         0.1025
      11    C3      21.005871   18.295879   21.388781 C.3        1 MOL1        -0.1243
      12    H8      21.572172   17.354007   21.397935 H          1 MOL1         0.1025
      13    H9      21.531836   18.972306   22.076140 H          1 MOL1         0.1025
      14    C4      21.031471   18.883309   19.959072 C.3        1 MOL1        -0.2258
      15    H10     20.511921   18.223579   19.252042 H          1 MOL1         0.1036
      16    H11     22.065385   19.000545   19.609435 H          1 MOL1         0.1036
      17    H12     20.554905   19.870867   19.919520 H          1 MOL1         0.1036
@<TRIPOS>BOND
    1     1     2    1
    2     1     3    1
    3     1     4    1
    4     1     5    1
    5     5     6    1
    6     5     7    1
    7     5     8    1
    8     8     9    1
    9     8    10    1
   10     8    11    1
   11    11    12    1
   12    11    13    1
   13    11    14    1
   14    14    15    1
   15    14    16    1
   16    14    17    1
@<TRIPOS>SUBSTRUCTURE
       1 MOL1            1 RESIDUE      1      MOL     
@<SCITEGIC>MOL_PROPERTY
VConf Rank
SciTegic.value.IntegerValue
989

@<SCITEGIC>MOL_PROPERTY
Conf_Id
SciTegic.value.IntegerValue
1

@<SCITEGIC>MOL_PROPERTY
Delta U+W
SciTegic.value.DoubleValue
0.685

@<SCITEGIC>MOL_PROPERTY
U+W
SciTegic.value.DoubleValue
-15.179

@<SCITEGIC>MOL_PROPERTY
Grad RMS
SciTegic.value.DoubleValue
0.000000

@<SCITEGIC>MOL_PROPERTY
U
SciTegic.value.DoubleValue
45.697

@<SCITEGIC>MOL_PROPERTY
W
SciTegic.value.DoubleValue
-60.876

@<SCITEGIC>MOL_PROPERTY
W(PB)
SciTegic.value.DoubleValue
-62.586

@<SCITEGIC>MOL_PROPERTY
W(SA)
SciTegic.value.DoubleValue
1.710

@<SCITEGIC>MOL_PROPERTY
Valence
SciTegic.value.DoubleValue
1.263

@<SCITEGIC>MOL_PROPERTY
Coulomb
SciTegic.value.DoubleValue
44.179

@<SCITEGIC>MOL_PROPERTY
VdW
SciTegic.value.DoubleValue
0.255

@<SCITEGIC>MOL_PROPERTY
VdW6
SciTegic.value.DoubleValue
-3.552

@<SCITEGIC>MOL_PROPERTY
VdW12
SciTegic.value.DoubleValue
3.807

@<SCITEGIC>MOL_PROPERTY
Bond
SciTegic.value.DoubleValue
0.125

@<SCITEGIC>MOL_PROPERTY
Angle
SciTegic.value.DoubleValue
0.616

@<SCITEGIC>MOL_PROPERTY
Pdih
SciTegic.value.DoubleValue
0.521

@<SCITEGIC>MOL_PROPERTY
Idih
SciTegic.value.DoubleValue
0.000

@<SCITEGIC>MOL_PROPERTY
Tether
SciTegic.value.DoubleValue
0.000

@<TRIPOS>MOLECULE
guest-1_confgen4.mol2 : confsearch ligand conformer 990
          17          16           1
SMALL
USER_CHARGES
 
@<TRIPOS>ATOM
       1    N1      20.414153   19.402734   23.488130 N.4        1 MOL1        -0.5891
       2    H1      20.113150   18.646889   24.110603 H          1 MOL1         0.3726
       3    H2      19.586562   19.966503   23.274340 H          1 MOL1         0.3726
       4    H3      21.050152   19.997841   24.028520 H          1 MOL1         0.3726
       5    C1      21.072147   18.870977   22.229505 C.3        1 MOL1         0.0314
       6    H4      21.963968   18.314179   22.529787 H          1 MOL1         0.0999
       7    H5      21.393849   19.724982   21.627851 H          1 MOL1         0.0999
       8    C2      20.158353   17.956365   21.387848 C.3        1 MOL1        -0.1308
       9    H6      20.735574   17.569805   20.537442 H          1 MOL1         0.1025
      10    H7      19.873815   17.081322   21.987086 H          1 MOL1         0.1025
      11    C3      18.880716   18.655617   20.860358 C.3        1 MOL1        -0.1243
      12    H8      18.246420   18.967462   21.701235 H          1 MOL1         0.1025
      13    H9      18.289184   17.927026   20.288387 H          1 MOL1         0.1025
      14    C4      19.185542   19.873602   19.958476 C.3        1 MOL1        -0.2258
      15    H10     18.256142   20.296689   19.555759 H          1 MOL1         0.1036
      16    H11     19.818420   19.586751   19.108624 H          1 MOL1         0.1036
      17    H12     19.697842   20.669294   20.513789 H          1 MOL1         0.1036
@<TRIPOS>BOND
    1     1     2    1
    2     1     3    1
    3     1     4    1
    4     1     5    1
    5     5     6    1
    6     5     7    1
    7     5     8    1
    8     8     9    1
    9     8    10    1
   10     8    11    1
   11    11    12    1
   12    11    13    1
   13    11    14    1
   14    14    15    1
   15    14    16    1
   16    14    17    1
@<TRIPOS>SUBSTRUCTURE
       1 MOL1            1 RESIDUE      1      MOL     
@<SCITEGIC>MOL_PROPERTY
VConf Rank
SciTegic.value.IntegerValue
990

@<SCITEGIC>MOL_PROPERTY
Conf_Id
SciTegic.value.IntegerValue
43

@<SCITEGIC>MOL_PROPERTY
Delta U+W
SciTegic.value.DoubleValue
0.642

@<SCITEGIC>MOL_PROPERTY
U+W
SciTegic.value.DoubleValue
-15.222

@<SCITEGIC>MOL_PROPERTY
Grad RMS
SciTegic.value.DoubleValue
0.000000

@<SCITEGIC>MOL_PROPERTY
U
SciTegic.value.DoubleValue
45.697

@<SCITEGIC>MOL_PROPERTY
W
SciTegic.value.DoubleValue
-60.919

@<SCITEGIC>MOL_PROPERTY
W(PB)
SciTegic.value.DoubleValue
-62.631

@<SCITEGIC>MOL_PROPERTY
W(SA)
SciTegic.value.DoubleValue
1.712

@<SCITEGIC>MOL_PROPERTY
Valence
SciTegic.value.DoubleValue
1.262

@<SCITEGIC>MOL_PROPERTY
Coulomb
SciTegic.value.DoubleValue
44.179

@<SCITEGIC>MOL_PROPERTY
VdW
SciTegic.value.DoubleValue
0.255

@<SCITEGIC>MOL_PROPERTY
VdW6
SciTegic.value.DoubleValue
-3.552

@<SCITEGIC>MOL_PROPERTY
VdW12
SciTegic.value.DoubleValue
3.807

@<SCITEGIC>MOL_PROPERTY
Bond
SciTegic.value.DoubleValue
0.125

@<SCITEGIC>MOL_PROPERTY
Angle
SciTegic.value.DoubleValue
0.616

@<SCITEGIC>MOL_PROPERTY
Pdih
SciTegic.value.DoubleValue
0.521

@<SCITEGIC>MOL_PROPERTY
Idih
SciTegic.value.DoubleValue
0.000

@<SCITEGIC>MOL_PROPERTY
Tether
SciTegic.value.DoubleValue
0.000

@<TRIPOS>MOLECULE
guest-1_confgen4.mol2 : confsearch ligand conformer 991
          17          16           1
SMALL
USER_CHARGES
 
@<TRIPOS>ATOM
       1    N1      20.473268   16.552644   21.433014 N.4        1 MOL1        -0.5891
       2    H1      19.647625   16.212872   21.935573 H          1 MOL1         0.3726
       3    H2      21.256264   16.533663   22.093509 H          1 MOL1         0.3726
       4    H3      20.682548   15.861326   20.705561 H          1 MOL1         0.3726
       5    C1      20.254791   17.934884   20.850745 C.3        1 MOL1         0.0314
       6    H4      19.429541   17.873573   20.136095 H          1 MOL1         0.0999
       7    H5      21.159338   18.218513   20.305884 H          1 MOL1         0.0999
       8    C2      19.937886   18.999255   21.917023 C.3        1 MOL1        -0.1308
       9    H6      19.037890   18.703338   22.472390 H          1 MOL1         0.1025
      10    H7      20.761791   19.047197   22.641502 H          1 MOL1         0.1025
      11    C3      19.722561   20.390834   21.282464 C.3        1 MOL1        -0.1243
      12    H8      18.900122   20.342711   20.554725 H          1 MOL1         0.1025
      13    H9      20.621934   20.686187   20.723696 H          1 MOL1         0.1025
      14    C4      19.404139   21.463766   22.346127 C.3        1 MOL1        -0.2258
      15    H10     19.254714   22.444168   21.875454 H          1 MOL1         0.1036
      16    H11     20.224684   21.559471   23.069143 H          1 MOL1         0.1036
      17    H12     18.489309   21.213243   22.898878 H          1 MOL1         0.1036
@<TRIPOS>BOND
    1     1     2    1
    2     1     3    1
    3     1     4    1
    4     1     5    1
    5     5     6    1
    6     5     7    1
    7     5     8    1
    8     8     9    1
    9     8    10    1
   10     8    11    1
   11    11    12    1
   12    11    13    1
   13    11    14    1
   14    14    15    1
   15    14    16    1
   16    14    17    1
@<TRIPOS>SUBSTRUCTURE
       1 MOL1            1 RESIDUE      1      MOL     
@<SCITEGIC>MOL_PROPERTY
VConf Rank
SciTegic.value.IntegerValue
991

@<SCITEGIC>MOL_PROPERTY
Conf_Id
SciTegic.value.IntegerValue
7

@<SCITEGIC>MOL_PROPERTY
Delta U+W
SciTegic.value.DoubleValue
0.000

@<SCITEGIC>MOL_PROPERTY
U+W
SciTegic.value.DoubleValue
-15.865

@<SCITEGIC>MOL_PROPERTY
Grad RMS
SciTegic.value.DoubleValue
0.000000

@<SCITEGIC>MOL_PROPERTY
U
SciTegic.value.DoubleValue
44.664

@<SCITEGIC>MOL_PROPERTY
W
SciTegic.value.DoubleValue
-60.529

@<SCITEGIC>MOL_PROPERTY
W(PB)
SciTegic.value.DoubleValue
-62.309

@<SCITEGIC>MOL_PROPERTY
W(SA)
SciTegic.value.DoubleValue
1.780

@<SCITEGIC>MOL_PROPERTY
Valence
SciTegic.value.DoubleValue
0.872

@<SCITEGIC>MOL_PROPERTY
Coulomb
SciTegic.value.DoubleValue
43.648

@<SCITEGIC>MOL_PROPERTY
VdW
SciTegic.value.DoubleValue
0.144

@<SCITEGIC>MOL_PROPERTY
VdW6
SciTegic.value.DoubleValue
-2.370

@<SCITEGIC>MOL_PROPERTY
VdW12
SciTegic.value.DoubleValue
2.515

@<SCITEGIC>MOL_PROPERTY
Bond
SciTegic.value.DoubleValue
0.080

@<SCITEGIC>MOL_PROPERTY
Angle
SciTegic.value.DoubleValue
0.376

@<SCITEGIC>MOL_PROPERTY
Pdih
SciTegic.value.DoubleValue
0.416

@<SCITEGIC>MOL_PROPERTY
Idih
SciTegic.value.DoubleValue
0.000

@<SCITEGIC>MOL_PROPERTY
Tether
SciTegic.value.DoubleValue
0.000

@<TRIPOS>MOLECULE
guest-1_confgen4.mol2 : confsearch ligand conformer 992
          17          16           1
SMALL
USER_CHARGES
 
@<TRIPOS>ATOM
       1    N1      20.346196   17.892857   19.569569 N.4        1 MOL1        -0.5891
       2    H1      21.251571   18.189853   19.193090 H          1 MOL1         0.3726
       3    H2      19.622083   18.337019   18.996832 H          1 MOL1         0.3726
       4    H3      20.274684   16.883219   19.407208 H          1 MOL1         0.3726
       5    C1      20.200521   18.239426   21.037910 C.3        1 MOL1         0.0314
       6    H4      20.982504   17.710304   21.589219 H          1 MOL1         0.0999
       7    H5      19.230257   17.866695   21.376284 H          1 MOL1         0.0999
       8    C2      20.302844   19.751141   21.317563 C.3        1 MOL1        -0.1308
       9    H6      21.263843   20.123023   20.938010 H          1 MOL1         0.1025
      10    H7      19.518482   20.282731   20.762517 H          1 MOL1         0.1025
      11    C3      20.191978   20.088085   22.822948 C.3        1 MOL1        -0.1243
      12    H8      20.352776   21.166657   22.960093 H          1 MOL1         0.1025
      13    H9      20.996794   19.583189   23.375700 H          1 MOL1         0.1025
      14    C4      18.823633   19.701268   23.429547 C.3        1 MOL1        -0.2258
      15    H10     18.000632   20.188505   22.890663 H          1 MOL1         0.1036
      16    H11     18.766521   20.013100   24.480501 H          1 MOL1         0.1036
      17    H12     18.660063   18.616701   23.397147 H          1 MOL1         0.1036
@<TRIPOS>BOND
    1     1     2    1
    2     1     3    1
    3     1     4    1
    4     1     5    1
    5     5     6    1
    6     5     7    1
    7     5     8    1
    8     8     9    1
    9     8    10    1
   10     8    11    1
   11    11    12    1
   12    11    13    1
   13    11    14    1
   14    14    15    1
   15    14    16    1
   16    14    17    1
@<TRIPOS>SUBSTRUCTURE
       1 MOL1            1 RESIDUE      1      MOL     
@<SCITEGIC>MOL_PROPERTY
VConf Rank
SciTegic.value.IntegerValue
992

@<SCITEGIC>MOL_PROPERTY
Conf_Id
SciTegic.value.IntegerValue
36

@<SCITEGIC>MOL_PROPERTY
Delta U+W
SciTegic.value.DoubleValue
0.275

@<SCITEGIC>MOL_PROPERTY
U+W
SciTegic.value.DoubleValue
-15.590

@<SCITEGIC>MOL_PROPERTY
Grad RMS
SciTegic.value.DoubleValue
0.000000

@<SCITEGIC>MOL_PROPERTY
U
SciTegic.value.DoubleValue
45.174

@<SCITEGIC>MOL_PROPERTY
W
SciTegic.value.DoubleValue
-60.765

@<SCITEGIC>MOL_PROPERTY
W(PB)
SciTegic.value.DoubleValue
-62.518

@<SCITEGIC>MOL_PROPERTY
W(SA)
SciTegic.value.DoubleValue
1.754

@<SCITEGIC>MOL_PROPERTY
Valence
SciTegic.value.DoubleValue
1.161

@<SCITEGIC>MOL_PROPERTY
Coulomb
SciTegic.value.DoubleValue
43.789

@<SCITEGIC>MOL_PROPERTY
VdW
SciTegic.value.DoubleValue
0.224

@<SCITEGIC>MOL_PROPERTY
VdW6
SciTegic.value.DoubleValue
-2.897

@<SCITEGIC>MOL_PROPERTY
VdW12
SciTegic.value.DoubleValue
3.121

@<SCITEGIC>MOL_PROPERTY
Bond
SciTegic.value.DoubleValue
0.100

@<SCITEGIC>MOL_PROPERTY
Angle
SciTegic.value.DoubleValue
0.500

@<SCITEGIC>MOL_PROPERTY
Pdih
SciTegic.value.DoubleValue
0.561

@<SCITEGIC>MOL_PROPERTY
Idih
SciTegic.value.DoubleValue
0.000

@<SCITEGIC>MOL_PROPERTY
Tether
SciTegic.value.DoubleValue
0.000

@<TRIPOS>MOLECULE
guest-1_confgen4.mol2 : confsearch ligand conformer 993
          17          16           1
SMALL
USER_CHARGES
 
@<TRIPOS>ATOM
       1    N1      19.730888   17.156290   21.844937 N.4        1 MOL1        -0.5891
       2    H1      19.159661   17.494611   21.066423 H          1 MOL1         0.3726
       3    H2      19.107677   17.046753   22.650598 H          1 MOL1         0.3726
       4    H3      20.059589   16.218381   21.593729 H          1 MOL1         0.3726
       5    C1      20.882602   18.095616   22.147016 C.3        1 MOL1         0.0314
       6    H4      21.548197   18.120374   21.280026 H          1 MOL1         0.0999
       7    H5      21.435913   17.663865   22.985452 H          1 MOL1         0.0999
       8    C2      20.450943   19.530769   22.515283 C.3        1 MOL1        -0.1308
       9    H6      19.602511   19.500759   23.211697 H          1 MOL1         0.1025
      10    H7      21.277350   19.997743   23.067400 H          1 MOL1         0.1025
      11    C3      20.119268   20.434012   21.300026 C.3        1 MOL1        -0.1243
      12    H8      20.997391   20.506783   20.643044 H          1 MOL1         0.1025
      13    H9      19.929521   21.452364   21.667374 H          1 MOL1         0.1025
      14    C4      18.896109   19.972353   20.475626 C.3        1 MOL1        -0.2258
      15    H10     19.111463   19.055003   19.915477 H          1 MOL1         0.1036
      16    H11     18.619999   20.740640   19.741694 H          1 MOL1         0.1036
      17    H12     18.024116   19.798400   21.119459 H          1 MOL1         0.1036
@<TRIPOS>BOND
    1     1     2    1
    2     1     3    1
    3     1     4    1
    4     1     5    1
    5     5     6    1
    6     5     7    1
    7     5     8    1
    8     8     9    1
    9     8    10    1
   10     8    11    1
   11    11    12    1
   12    11    13    1
   13    11    14    1
   14    14    15    1
   15    14    16    1
   16    14    17    1
@<TRIPOS>SUBSTRUCTURE
       1 MOL1            1 RESIDUE      1      MOL     
@<SCITEGIC>MOL_PROPERTY
VConf Rank
SciTegic.value.IntegerValue
993

@<SCITEGIC>MOL_PROPERTY
Conf_Id
SciTegic.value.IntegerValue
19

@<SCITEGIC>MOL_PROPERTY
Delta U+W
SciTegic.value.DoubleValue
2.662

@<SCITEGIC>MOL_PROPERTY
U+W
SciTegic.value.DoubleValue
-13.203

@<SCITEGIC>MOL_PROPERTY
Grad RMS
SciTegic.value.DoubleValue
0.000000

@<SCITEGIC>MOL_PROPERTY
U
SciTegic.value.DoubleValue
47.423

@<SCITEGIC>MOL_PROPERTY
W
SciTegic.value.DoubleValue
-60.626

@<SCITEGIC>MOL_PROPERTY
W(PB)
SciTegic.value.DoubleValue
-62.328

@<SCITEGIC>MOL_PROPERTY
W(SA)
SciTegic.value.DoubleValue
1.702

@<SCITEGIC>MOL_PROPERTY
Valence
SciTegic.value.DoubleValue
2.414

@<SCITEGIC>MOL_PROPERTY
Coulomb
SciTegic.value.DoubleValue
44.831

@<SCITEGIC>MOL_PROPERTY
VdW
SciTegic.value.DoubleValue
0.178

@<SCITEGIC>MOL_PROPERTY
VdW6
SciTegic.value.DoubleValue
-3.743

@<SCITEGIC>MOL_PROPERTY
VdW12
SciTegic.value.DoubleValue
3.921

@<SCITEGIC>MOL_PROPERTY
Bond
SciTegic.value.DoubleValue
0.138

@<SCITEGIC>MOL_PROPERTY
Angle
SciTegic.value.DoubleValue
0.941

@<SCITEGIC>MOL_PROPERTY
Pdih
SciTegic.value.DoubleValue
1.335

@<SCITEGIC>MOL_PROPERTY
Idih
SciTegic.value.DoubleValue
0.000

@<SCITEGIC>MOL_PROPERTY
Tether
SciTegic.value.DoubleValue
0.000

@<TRIPOS>MOLECULE
guest-1_confgen4.mol2 : confsearch ligand conformer 994
          17          16           1
SMALL
USER_CHARGES
 
@<TRIPOS>ATOM
       1    N1      20.567458   19.001119   23.326529 N.4        1 MOL1        -0.5891
       2    H1      21.409583   18.993210   23.910983 H          1 MOL1         0.3726
       3    H2      19.780488   18.759261   23.936172 H          1 MOL1         0.3726
       4    H3      20.423387   19.965820   23.017597 H          1 MOL1         0.3726
       5    C1      20.685718   18.046893   22.153709 C.3        1 MOL1         0.0314
       6    H4      20.834588   17.046497   22.569139 H          1 MOL1         0.0999
       7    H5      21.577859   18.310274   21.579239 H          1 MOL1         0.0999
       8    C2      19.453365   18.027335   21.224982 C.3        1 MOL1        -0.1308
       9    H6      19.467872   17.080360   20.669217 H          1 MOL1         0.1025
      10    H7      18.532585   18.011431   21.823013 H          1 MOL1         0.1025
      11    C3      19.406902   19.184114   20.194251 C.3        1 MOL1        -0.1243
      12    H8      18.553734   19.014821   19.522362 H          1 MOL1         0.1025
      13    H9      20.304128   19.150515   19.560312 H          1 MOL1         0.1025
      14    C4      19.269916   20.591311   20.818679 C.3        1 MOL1        -0.2258
      15    H10     18.436603   20.631407   21.532215 H          1 MOL1         0.1036
      16    H11     19.075014   21.337101   20.037036 H          1 MOL1         0.1036
      17    H12     20.190013   20.895379   21.331168 H          1 MOL1         0.1036
@<TRIPOS>BOND
    1     1     2    1
    2     1     3    1
    3     1     4    1
    4     1     5    1
    5     5     6    1
    6     5     7    1
    7     5     8    1
    8     8     9    1
    9     8    10    1
   10     8    11    1
   11    11    12    1
   12    11    13    1
   13    11    14    1
   14    14    15    1
   15    14    16    1
   16    14    17    1
@<TRIPOS>SUBSTRUCTURE
       1 MOL1            1 RESIDUE      1      MOL     
@<SCITEGIC>MOL_PROPERTY
VConf Rank
SciTegic.value.IntegerValue
994

@<SCITEGIC>MOL_PROPERTY
Conf_Id
SciTegic.value.IntegerValue
44

@<SCITEGIC>MOL_PROPERTY
Delta U+W
SciTegic.value.DoubleValue
2.712

@<SCITEGIC>MOL_PROPERTY
U+W
SciTegic.value.DoubleValue
-13.153

@<SCITEGIC>MOL_PROPERTY
Grad RMS
SciTegic.value.DoubleValue
0.000000

@<SCITEGIC>MOL_PROPERTY
U
SciTegic.value.DoubleValue
47.423

@<SCITEGIC>MOL_PROPERTY
W
SciTegic.value.DoubleValue
-60.576

@<SCITEGIC>MOL_PROPERTY
W(PB)
SciTegic.value.DoubleValue
-62.262

@<SCITEGIC>MOL_PROPERTY
W(SA)
SciTegic.value.DoubleValue
1.687

@<SCITEGIC>MOL_PROPERTY
Valence
SciTegic.value.DoubleValue
2.414

@<SCITEGIC>MOL_PROPERTY
Coulomb
SciTegic.value.DoubleValue
44.831

@<SCITEGIC>MOL_PROPERTY
VdW
SciTegic.value.DoubleValue
0.178

@<SCITEGIC>MOL_PROPERTY
VdW6
SciTegic.value.DoubleValue
-3.743

@<SCITEGIC>MOL_PROPERTY
VdW12
SciTegic.value.DoubleValue
3.922

@<SCITEGIC>MOL_PROPERTY
Bond
SciTegic.value.DoubleValue
0.138

@<SCITEGIC>MOL_PROPERTY
Angle
SciTegic.value.DoubleValue
0.941

@<SCITEGIC>MOL_PROPERTY
Pdih
SciTegic.value.DoubleValue
1.335

@<SCITEGIC>MOL_PROPERTY
Idih
SciTegic.value.DoubleValue
0.000

@<SCITEGIC>MOL_PROPERTY
Tether
SciTegic.value.DoubleValue
0.000

@<TRIPOS>MOLECULE
guest-1_confgen4.mol2 : confsearch ligand conformer 995
          17          16           1
SMALL
USER_CHARGES
 
@<TRIPOS>ATOM
       1    N1      18.541994   18.572941   20.245124 N.4        1 MOL1        -0.5891
       2    H1      19.434633   18.203019   19.906302 H          1 MOL1         0.3726
       3    H2      18.305063   19.377806   19.657386 H          1 MOL1         0.3726
       4    H3      17.833072   17.854620   20.065926 H          1 MOL1         0.3726
       5    C1      18.609200   18.945057   21.713753 C.3        1 MOL1         0.0314
       6    H4      18.835394   18.039919   22.283285 H          1 MOL1         0.0999
       7    H5      17.617702   19.294442   22.014418 H          1 MOL1         0.0999
       8    C2      19.653255   20.035029   22.032861 C.3        1 MOL1        -0.1308
       9    H6      19.394497   20.952527   21.487892 H          1 MOL1         0.1025
      10    H7      19.585865   20.284221   23.100178 H          1 MOL1         0.1025
      11    C3      21.109902   19.630217   21.695423 C.3        1 MOL1        -0.1243
      12    H8      21.776167   20.468997   21.941276 H          1 MOL1         0.1025
      13    H9      21.215462   19.466268   20.614390 H          1 MOL1         0.1025
      14    C4      21.581801   18.372968   22.461212 C.3        1 MOL1        -0.2258
      15    H10     21.486837   18.512804   23.545876 H          1 MOL1         0.1036
      16    H11     22.636528   18.161976   22.242118 H          1 MOL1         0.1036
      17    H12     21.001273   17.485951   22.178130 H          1 MOL1         0.1036
@<TRIPOS>BOND
    1     1     2    1
    2     1     3    1
    3     1     4    1
    4     1     5    1
    5     5     6    1
    6     5     7    1
    7     5     8    1
    8     8     9    1
    9     8    10    1
   10     8    11    1
   11    11    12    1
   12    11    13    1
   13    11    14    1
   14    14    15    1
   15    14    16    1
   16    14    17    1
@<TRIPOS>SUBSTRUCTURE
       1 MOL1            1 RESIDUE      1      MOL     
@<SCITEGIC>MOL_PROPERTY
VConf Rank
SciTegic.value.IntegerValue
995

@<SCITEGIC>MOL_PROPERTY
Conf_Id
SciTegic.value.IntegerValue
1

@<SCITEGIC>MOL_PROPERTY
Delta U+W
SciTegic.value.DoubleValue
0.685

@<SCITEGIC>MOL_PROPERTY
U+W
SciTegic.value.DoubleValue
-15.179

@<SCITEGIC>MOL_PROPERTY
Grad RMS
SciTegic.value.DoubleValue
0.000000

@<SCITEGIC>MOL_PROPERTY
U
SciTegic.value.DoubleValue
45.697

@<SCITEGIC>MOL_PROPERTY
W
SciTegic.value.DoubleValue
-60.876

@<SCITEGIC>MOL_PROPERTY
W(PB)
SciTegic.value.DoubleValue
-62.586

@<SCITEGIC>MOL_PROPERTY
W(SA)
SciTegic.value.DoubleValue
1.710

@<SCITEGIC>MOL_PROPERTY
Valence
SciTegic.value.DoubleValue
1.263

@<SCITEGIC>MOL_PROPERTY
Coulomb
SciTegic.value.DoubleValue
44.179

@<SCITEGIC>MOL_PROPERTY
VdW
SciTegic.value.DoubleValue
0.255

@<SCITEGIC>MOL_PROPERTY
VdW6
SciTegic.value.DoubleValue
-3.552

@<SCITEGIC>MOL_PROPERTY
VdW12
SciTegic.value.DoubleValue
3.807

@<SCITEGIC>MOL_PROPERTY
Bond
SciTegic.value.DoubleValue
0.125

@<SCITEGIC>MOL_PROPERTY
Angle
SciTegic.value.DoubleValue
0.616

@<SCITEGIC>MOL_PROPERTY
Pdih
SciTegic.value.DoubleValue
0.521

@<SCITEGIC>MOL_PROPERTY
Idih
SciTegic.value.DoubleValue
0.000

@<SCITEGIC>MOL_PROPERTY
Tether
SciTegic.value.DoubleValue
0.000

@<TRIPOS>MOLECULE
guest-1_confgen4.mol2 : confsearch ligand conformer 996
          17          16           1
SMALL
USER_CHARGES
 
@<TRIPOS>ATOM
       1    N1      18.298818   19.843138   22.397692 N.4        1 MOL1        -0.5891
       2    H1      17.717232   19.140441   22.863903 H          1 MOL1         0.3726
       3    H2      18.129491   19.757023   21.391531 H          1 MOL1         0.3726
       4    H3      17.943125   20.760999   22.683492 H          1 MOL1         0.3726
       5    C1      19.767662   19.677015   22.736452 C.3        1 MOL1         0.0314
       6    H4      19.878613   19.817899   23.815053 H          1 MOL1         0.0999
       7    H5      20.324143   20.471812   22.233031 H          1 MOL1         0.0999
       8    C2      20.347096   18.303769   22.338493 C.3        1 MOL1        -0.1308
       9    H6      21.389975   18.250791   22.678198 H          1 MOL1         0.1025
      10    H7      19.808775   17.514776   22.880203 H          1 MOL1         0.1025
      11    C3      20.291420   18.013166   20.817964 C.3        1 MOL1        -0.1243
      12    H8      19.247224   17.971659   20.479460 H          1 MOL1         0.1025
      13    H9      20.709896   17.013839   20.633229 H          1 MOL1         0.1025
      14    C4      21.071321   19.047872   19.974793 C.3        1 MOL1        -0.2258
      15    H10     21.059860   18.767059   18.913670 H          1 MOL1         0.1036
      16    H11     22.119986   19.107073   20.293953 H          1 MOL1         0.1036
      17    H12     20.631349   20.049709   20.056624 H          1 MOL1         0.1036
@<TRIPOS>BOND
    1     1     2    1
    2     1     3    1
    3     1     4    1
    4     1     5    1
    5     5     6    1
    6     5     7    1
    7     5     8    1
    8     8     9    1
    9     8    10    1
   10     8    11    1
   11    11    12    1
   12    11    13    1
   13    11    14    1
   14    14    15    1
   15    14    16    1
   16    14    17    1
@<TRIPOS>SUBSTRUCTURE
       1 MOL1            1 RESIDUE      1      MOL     
@<SCITEGIC>MOL_PROPERTY
VConf Rank
SciTegic.value.IntegerValue
996

@<SCITEGIC>MOL_PROPERTY
Conf_Id
SciTegic.value.IntegerValue
43

@<SCITEGIC>MOL_PROPERTY
Delta U+W
SciTegic.value.DoubleValue
0.642

@<SCITEGIC>MOL_PROPERTY
U+W
SciTegic.value.DoubleValue
-15.222

@<SCITEGIC>MOL_PROPERTY
Grad RMS
SciTegic.value.DoubleValue
0.000000

@<SCITEGIC>MOL_PROPERTY
U
SciTegic.value.DoubleValue
45.697

@<SCITEGIC>MOL_PROPERTY
W
SciTegic.value.DoubleValue
-60.919

@<SCITEGIC>MOL_PROPERTY
W(PB)
SciTegic.value.DoubleValue
-62.631

@<SCITEGIC>MOL_PROPERTY
W(SA)
SciTegic.value.DoubleValue
1.712

@<SCITEGIC>MOL_PROPERTY
Valence
SciTegic.value.DoubleValue
1.262

@<SCITEGIC>MOL_PROPERTY
Coulomb
SciTegic.value.DoubleValue
44.179

@<SCITEGIC>MOL_PROPERTY
VdW
SciTegic.value.DoubleValue
0.255

@<SCITEGIC>MOL_PROPERTY
VdW6
SciTegic.value.DoubleValue
-3.552

@<SCITEGIC>MOL_PROPERTY
VdW12
SciTegic.value.DoubleValue
3.807

@<SCITEGIC>MOL_PROPERTY
Bond
SciTegic.value.DoubleValue
0.125

@<SCITEGIC>MOL_PROPERTY
Angle
SciTegic.value.DoubleValue
0.616

@<SCITEGIC>MOL_PROPERTY
Pdih
SciTegic.value.DoubleValue
0.521

@<SCITEGIC>MOL_PROPERTY
Idih
SciTegic.value.DoubleValue
0.000

@<SCITEGIC>MOL_PROPERTY
Tether
SciTegic.value.DoubleValue
0.000

