@<TRIPOS>MOLECULE
CD_guest-s13_vm2_rndm.mol2 : vm2 host+ligand conformer 1
         152         157           2
SMALL
USER_CHARGES
 
@<TRIPOS>ATOM
       1    C1      16.211301   15.285927   21.893773 C.3        1 MOL1         0.2972
       2    H1      15.152116   15.145239   22.145205 H          1 MOL1         0.0751
       3    O1      16.447242   16.550993   21.247723 O.3        1 MOL1        -0.3740
       4    C2      17.088544   15.214954   23.169212 C.3        1 MOL1         0.1003
       5    H2      16.968287   14.210248   23.594920 H          1 MOL1         0.0783
       6    O2      16.686011   16.193762   24.141561 O.3        1 MOL1        -0.5519
       7    H3      15.844240   16.598289   23.819308 H          1 MOL1         0.3769
       8    C3      18.577699   15.414815   22.807739 C.3        1 MOL1         0.1053
       9    H4      18.694531   16.450083   22.464227 H          1 MOL1         0.0783
      10    O3      19.383373   15.196339   23.970479 O.3        1 MOL1        -0.5519
      11    H5      18.930497   15.701223   24.682631 H          1 MOL1         0.3769
      12    C4      19.030228   14.473402   21.663189 C.3        1 MOL1         0.1018
      13    H6      19.180558   13.467468   22.076489 H          1 MOL1         0.0783
      14    C5      18.012844   14.412688   20.487013 C.3        1 MOL1         0.1043
      15    H7      18.082949   15.353499   19.925012 H          1 MOL1         0.0783
      16    O4      16.665374   14.248817   20.998839 O.3        1 MOL1        -0.3740
      17    C6      18.279723   13.262148   19.490959 C.3        1 MOL1         0.0138
      18    H8      19.235684   13.442942   18.982238 H          1 MOL1         0.0794
      19    H9      17.496138   13.273046   18.721487 H          1 MOL1         0.0794
      20    O5      18.305164   11.995458   20.154917 O.3        1 MOL1        -0.5486
      21    H10     17.433308   11.898179   20.598618 H          1 MOL1         0.3769
      22    C7      14.703992   20.161024   20.429786 C.3        1 MOL1         0.2972
      23    H11     14.099631   21.017956   20.107110 H          1 MOL1         0.0751
      24    O6      16.046228   20.561806   20.787752 O.3        1 MOL1        -0.3740
      25    C8      14.027331   19.408858   21.606069 C.3        1 MOL1         0.1003
      26    H12     13.085888   18.995164   21.221460 H          1 MOL1         0.0783
      27    O7      13.726455   20.278794   22.705836 O.3        1 MOL1        -0.5519
      28    H13     14.593222   20.581547   23.076550 H          1 MOL1         0.3769
      29    C9      14.912554   18.224302   22.061017 C.3        1 MOL1         0.1053
      30    H14     15.840935   18.635580   22.481633 H          1 MOL1         0.0783
      31    O8      14.221495   17.471391   23.063507 O.3        1 MOL1        -0.5519
      32    H15     13.785566   18.144441   23.634096 H          1 MOL1         0.3769
      33    C10     15.289647   17.310282   20.862416 C.3        1 MOL1         0.1018
      34    H16     14.443021   16.659908   20.604691 H          1 MOL1         0.0783
      35    C11     15.720185   18.100965   19.598088 C.3        1 MOL1         0.1043
      36    H17     16.736642   18.475885   19.760806 H          1 MOL1         0.0783
      37    O9      14.812050   19.204747   19.356355 O.3        1 MOL1        -0.3740
      38    C12     15.735071   17.214587   18.335965 C.3        1 MOL1         0.0138
      39    H18     14.712356   16.882431   18.112927 H          1 MOL1         0.0794
      40    H19     16.342570   16.320477   18.528470 H          1 MOL1         0.0794
      41    O10     16.278176   17.944214   17.234348 O.3        1 MOL1        -0.5486
      42    H20     15.751628   18.770983   17.171597 H          1 MOL1         0.3769
      43    C13     18.395560   23.751223   22.044749 C.3        1 MOL1         0.2972
      44    H21     18.758825   24.720718   22.408853 H          1 MOL1         0.0751
      45    O11     19.473957   22.938980   21.537703 O.3        1 MOL1        -0.3740
      46    C14     17.665024   22.990589   23.183036 C.3        1 MOL1         0.1003
      47    H22     16.840784   23.633528   23.518397 H          1 MOL1         0.0783
      48    O12     18.534012   22.724387   24.295432 O.3        1 MOL1        -0.5519
      49    H23     19.290022   23.356314   24.230055 H          1 MOL1         0.3769
      50    C15     17.060707   21.663488   22.673096 C.3        1 MOL1         0.1053
      51    H24     17.890599   20.987452   22.440496 H          1 MOL1         0.0783
      52    O13     16.264854   21.097923   23.716971 O.3        1 MOL1        -0.5519
      53    H25     16.827978   21.172190   24.520694 H          1 MOL1         0.3769
      54    C16     16.222101   21.862968   21.382874 C.3        1 MOL1         0.1018
      55    H26     15.263530   22.331463   21.643214 H          1 MOL1         0.0783
      56    C17     16.965941   22.737248   20.336459 C.3        1 MOL1         0.1043
      57    H27     17.805275   22.159023   19.928142 H          1 MOL1         0.0783
      58    O14     17.448554   23.946474   20.973693 O.3        1 MOL1        -0.3740
      59    C18     16.061236   23.160408   19.161244 C.3        1 MOL1         0.0138
      60    H28     15.232612   23.772871   19.541298 H          1 MOL1         0.0794
      61    H29     15.632338   22.265575   18.691389 H          1 MOL1         0.0794
      62    O15     16.826269   23.889555   18.199914 O.3        1 MOL1        -0.5486
      63    H30     17.280468   24.604073   18.699697 H          1 MOL1         0.3769
      64    C19     23.635647   22.916325   21.610351 C.3        1 MOL1         0.2972
      65    H31     24.700993   23.166096   21.529219 H          1 MOL1         0.0751
      66    O16     23.428756   21.519058   21.889327 O.3        1 MOL1        -0.3740
      67    C20     22.985321   23.717917   22.760816 C.3        1 MOL1         0.1003
      68    H32     23.121630   24.783978   22.536873 H          1 MOL1         0.0783
      69    O17     23.623240   23.409739   24.011050 O.3        1 MOL1        -0.5519
      70    H33     23.840239   22.444198   23.995318 H          1 MOL1         0.3769
      71    C21     21.464653   23.437877   22.848220 C.3        1 MOL1         0.1053
      72    H34     21.330377   22.403847   23.195227 H          1 MOL1         0.0783
      73    O18     20.897469   24.347432   23.797659 O.3        1 MOL1        -0.5519
      74    H35     21.545772   24.373805   24.538216 H          1 MOL1         0.3769
      75    C22     20.767708   23.572235   21.462461 C.3        1 MOL1         0.1018
      76    H36     20.677737   24.632801   21.192085 H          1 MOL1         0.0783
      77    C23     21.552629   22.841371   20.340213 C.3        1 MOL1         0.1043
      78    H37     21.462492   21.757385   20.489693 H          1 MOL1         0.0783
      79    O19     22.938940   23.250936   20.394884 O.3        1 MOL1        -0.3740
      80    C24     21.037384   23.175999   18.924839 C.3        1 MOL1         0.0138
      81    H38     21.255357   24.228197   18.698529 H          1 MOL1         0.0794
      82    H39     19.947148   23.049771   18.892827 H          1 MOL1         0.0794
      83    O20     21.661120   22.314146   17.966267 O.3        1 MOL1        -0.5486
      84    H40     22.630275   22.399984   18.106219 H          1 MOL1         0.3769
      85    C25     25.175067   17.782250   21.603497 C.3        1 MOL1         0.2972
      86    H41     25.860297   16.931010   21.503712 H          1 MOL1         0.0751
      87    O21     23.796842   17.362085   21.638493 O.3        1 MOL1        -0.3740
      88    C26     25.477905   18.551623   22.912167 C.3        1 MOL1         0.1003
      89    H42     26.513449   18.911063   22.853059 H          1 MOL1         0.0783
      90    O22     25.340699   17.690644   24.053848 O.3        1 MOL1        -0.5519
      91    H43     24.686068   16.987837   23.813440 H          1 MOL1         0.3769
      92    C27     24.552152   19.782217   23.046667 C.3        1 MOL1         0.1053
      93    H44     23.527529   19.418675   23.201248 H          1 MOL1         0.0783
      94    O23     24.955795   20.569292   24.172339 O.3        1 MOL1        -0.5519
      95    H45     25.091252   19.921412   24.899453 H          1 MOL1         0.3769
      96    C28     24.571826   20.653741   21.765917 C.3        1 MOL1         0.1018
      97    H46     25.516040   21.213393   21.734665 H          1 MOL1         0.0783
      98    C29     24.414849   19.816007   20.465247 C.3        1 MOL1         0.1043
      99    H47     23.379334   19.457151   20.405810 H          1 MOL1         0.0783
     100    O24     25.338729   18.699373   20.502776 O.3        1 MOL1        -0.3740
     101    C30     24.726915   20.614308   19.179987 C.3        1 MOL1         0.0138
     102    H48     25.814526   20.723107   19.073367 H          1 MOL1         0.0794
     103    H49     24.307123   21.620342   19.257275 H          1 MOL1         0.0794
     104    O25     24.168184   19.962436   18.037004 O.3        1 MOL1        -0.5486
     105    H50     24.604518   19.087175   17.965388 H          1 MOL1         0.3769
     106    C31     21.314737   14.110755   20.843201 C.3        1 MOL1         0.2972
     107    H51     20.917630   13.137109   20.528980 H          1 MOL1         0.0751
     108    O26     20.253181   15.035753   21.148984 O.3        1 MOL1        -0.3740
     109    C32     22.251808   13.956551   22.075050 C.3        1 MOL1         0.1003
     110    H52     23.063963   13.280969   21.776675 H          1 MOL1         0.0783
     111    O27     21.569881   13.390638   23.205006 O.3        1 MOL1        -0.5519
     112    H53     20.847631   14.021603   23.453676 H          1 MOL1         0.3769
     113    C33     22.883768   15.314025   22.463964 C.3        1 MOL1         0.1053
     114    H54     22.083818   15.965799   22.840935 H          1 MOL1         0.0783
     115    O28     23.864658   15.112178   23.486361 O.3        1 MOL1        -0.5519
     116    H55     23.444817   14.497459   24.128828 H          1 MOL1         0.3769
     117    C34     23.535914   16.002924   21.240603 C.3        1 MOL1         0.1018
     118    H56     24.453149   15.464103   20.968293 H          1 MOL1         0.0783
     119    C35     22.584092   16.035262   20.017939 C.3        1 MOL1         0.1043
     120    H57     21.757849   16.717601   20.242792 H          1 MOL1         0.0783
     121    O29     22.087701   14.695914   19.773078 O.3        1 MOL1        -0.3740
     122    C36     23.273237   16.524065   18.727369 C.3        1 MOL1         0.0138
     123    H58     23.948039   15.742443   18.353620 H          1 MOL1         0.0794
     124    H59     23.881065   17.404783   18.953893 H          1 MOL1         0.0794
     125    O30     22.294286   16.865409   17.743707 O.3        1 MOL1        -0.5486
     126    H60     21.769211   16.050855   17.584184 H          1 MOL1         0.3769
     127    C1      20.004155   19.094964   23.530430 C.3        1 MOL1        -0.2398
     128    H1      18.989860   18.709790   23.700615 H          1 MOL1         0.0972
     129    H2      20.658910   18.673554   24.303942 H          1 MOL1         0.0972
     130    H3      19.982359   20.184822   23.663242 H          1 MOL1         0.0972
     131    C2      20.512921   18.717356   22.123978 C.3        1 MOL1        -0.1383
     132    H4      20.570268   17.625882   22.036508 H          1 MOL1         0.0961
     133    H5      21.534004   19.098494   21.992551 H          1 MOL1         0.0961
     134    C3      19.601766   19.287667   21.017597 C.3        1 MOL1        -0.1407
     135    H6      18.569116   18.944651   21.168839 H          1 MOL1         0.0961
     136    H7      19.590759   20.380261   21.102086 H          1 MOL1         0.0961
     137    C4      20.079295   18.894477   19.603843 C.3        1 MOL1        -0.1407
     138    H8      19.919922   17.819284   19.443591 H          1 MOL1         0.0961
     139    H9      21.159211   19.077240   19.528850 H          1 MOL1         0.0961
     140    C5      19.340354   19.700566   18.510131 C.3        1 MOL1        -0.1472
     141    H10     18.262024   19.521800   18.587037 H          1 MOL1         0.0961
     142    H11     19.485690   20.771694   18.688992 H          1 MOL1         0.0961
     143    C6      19.800185   19.360019   17.077384 C.3        1 MOL1         0.1190
     144    H12     19.580125   18.306208   16.880348 H          1 MOL1         0.0923
     145    C7      19.026032   20.217297   16.064068 C.3        1 MOL1        -0.2463
     146    H13     19.310783   19.956775   15.037663 H          1 MOL1         0.0972
     147    H14     17.945637   20.055518   16.162486 H          1 MOL1         0.0972
     148    H15     19.228255   21.285560   16.215915 H          1 MOL1         0.0972
     149    N1      21.281992   19.537599   16.891388 N.4        1 MOL1        -0.5974
     150    H16     21.589718   20.464093   17.226355 H          1 MOL1         0.3625
     151    H17     21.815074   18.822244   17.410688 H          1 MOL1         0.3625
     152    H18     21.554509   19.453477   15.910083 H          1 MOL1         0.3625
@<TRIPOS>BOND
    1     1     2    1
    2     1     3    1
    3     1     4    1
    4     4     5    1
    5     4     6    1
    6     6     7    1
    7     4     8    1
    8     8     9    1
    9     8    10    1
   10    10    11    1
   11     8    12    1
   12    12    13    1
   13    12    14    1
   14    14    15    1
   15     1    16    1
   16    14    16    1
   17    14    17    1
   18    17    18    1
   19    17    19    1
   20    17    20    1
   21    20    21    1
   22    22    23    1
   23    22    24    1
   24    22    25    1
   25    25    26    1
   26    25    27    1
   27    27    28    1
   28    25    29    1
   29    29    30    1
   30    29    31    1
   31    31    32    1
   32     3    33    1
   33    29    33    1
   34    33    34    1
   35    33    35    1
   36    35    36    1
   37    22    37    1
   38    35    37    1
   39    35    38    1
   40    38    39    1
   41    38    40    1
   42    38    41    1
   43    41    42    1
   44    43    44    1
   45    43    45    1
   46    43    46    1
   47    46    47    1
   48    46    48    1
   49    48    49    1
   50    46    50    1
   51    50    51    1
   52    50    52    1
   53    52    53    1
   54    24    54    1
   55    50    54    1
   56    54    55    1
   57    54    56    1
   58    56    57    1
   59    43    58    1
   60    56    58    1
   61    56    59    1
   62    59    60    1
   63    59    61    1
   64    59    62    1
   65    62    63    1
   66    64    65    1
   67    64    66    1
   68    64    67    1
   69    67    68    1
   70    67    69    1
   71    69    70    1
   72    67    71    1
   73    71    72    1
   74    71    73    1
   75    73    74    1
   76    45    75    1
   77    71    75    1
   78    75    76    1
   79    75    77    1
   80    77    78    1
   81    64    79    1
   82    77    79    1
   83    77    80    1
   84    80    81    1
   85    80    82    1
   86    80    83    1
   87    83    84    1
   88    85    86    1
   89    85    87    1
   90    85    88    1
   91    88    89    1
   92    88    90    1
   93    90    91    1
   94    88    92    1
   95    92    93    1
   96    92    94    1
   97    94    95    1
   98    66    96    1
   99    92    96    1
  100    96    97    1
  101    96    98    1
  102    98    99    1
  103    85   100    1
  104    98   100    1
  105    98   101    1
  106   101   102    1
  107   101   103    1
  108   101   104    1
  109   104   105    1
  110   106   107    1
  111    12   108    1
  112   106   108    1
  113   106   109    1
  114   109   110    1
  115   109   111    1
  116   111   112    1
  117   109   113    1
  118   113   114    1
  119   113   115    1
  120   115   116    1
  121    87   117    1
  122   113   117    1
  123   117   118    1
  124   117   119    1
  125   119   120    1
  126   106   121    1
  127   119   121    1
  128   119   122    1
  129   122   123    1
  130   122   124    1
  131   122   125    1
  132   125   126    1
  133   127   128    1
  134   127   129    1
  135   127   130    1
  136   127   131    1
  137   131   132    1
  138   131   133    1
  139   131   134    1
  140   134   135    1
  141   134   136    1
  142   134   137    1
  143   137   138    1
  144   137   139    1
  145   137   140    1
  146   140   141    1
  147   140   142    1
  148   140   143    1
  149   143   144    1
  150   143   145    1
  151   145   146    1
  152   145   147    1
  153   145   148    1
  154   143   149    1
  155   149   150    1
  156   149   151    1
  157   149   152    1
@<TRIPOS>SUBSTRUCTURE
       1 MOL1            1 RESIDUE      1      MOL     
       2 MOL1          152 RESIDUE      1      MOL     
@<SCITEGIC>MOL_PROPERTY
VM2 Rank
SciTegic.value.IntegerValue
1

@<SCITEGIC>MOL_PROPERTY
Conf_Id
SciTegic.value.IntegerValue
15512

@<SCITEGIC>MOL_PROPERTY
Probability
SciTegic.value.DoubleValue
2.19

@<SCITEGIC>MOL_PROPERTY
Sum Probability
SciTegic.value.DoubleValue
2.19

@<SCITEGIC>MOL_PROPERTY
Delta G
SciTegic.value.DoubleValue
0.000

@<SCITEGIC>MOL_PROPERTY
G
SciTegic.value.DoubleValue
542.018

@<SCITEGIC>MOL_PROPERTY
E
SciTegic.value.DoubleValue
338.181

@<SCITEGIC>MOL_PROPERTY
-TS
SciTegic.value.DoubleValue
203.837

@<SCITEGIC>MOL_PROPERTY
U+W
SciTegic.value.DoubleValue
204.044

@<SCITEGIC>MOL_PROPERTY
U
SciTegic.value.DoubleValue
263.509

@<SCITEGIC>MOL_PROPERTY
W
SciTegic.value.DoubleValue
-59.465

@<SCITEGIC>MOL_PROPERTY
W(PB)
SciTegic.value.DoubleValue
-65.412

@<SCITEGIC>MOL_PROPERTY
W(SA)
SciTegic.value.DoubleValue
5.947

@<SCITEGIC>MOL_PROPERTY
Valence
SciTegic.value.DoubleValue
148.463

@<SCITEGIC>MOL_PROPERTY
Coulomb
SciTegic.value.DoubleValue
142.927

@<SCITEGIC>MOL_PROPERTY
VdW
SciTegic.value.DoubleValue
-27.881

@<SCITEGIC>MOL_PROPERTY
VdW6
SciTegic.value.DoubleValue
-182.866

@<SCITEGIC>MOL_PROPERTY
VdW12
SciTegic.value.DoubleValue
154.985

@<SCITEGIC>MOL_PROPERTY
Bond
SciTegic.value.DoubleValue
4.201

@<SCITEGIC>MOL_PROPERTY
Angle
SciTegic.value.DoubleValue
10.260

@<SCITEGIC>MOL_PROPERTY
Pdih
SciTegic.value.DoubleValue
134.003

@<SCITEGIC>MOL_PROPERTY
Idih
SciTegic.value.DoubleValue
0.000

@<SCITEGIC>MOL_PROPERTY
Tether
SciTegic.value.DoubleValue
0.000

@<TRIPOS>MOLECULE
CD_guest-s13_vm2_rndm.mol2 : vm2 host+ligand conformer 2
         152         157           2
SMALL
USER_CHARGES
 
@<TRIPOS>ATOM
       1    C1      16.205957   15.175018   21.680040 C.3        1 MOL1         0.2972
       2    H1      15.111896   15.105764   21.737309 H          1 MOL1         0.0751
       3    O1      16.638920   16.491225   21.275857 O.3        1 MOL1        -0.3740
       4    C2      16.833790   14.836133   23.055097 C.3        1 MOL1         0.1003
       5    H2      16.570303   13.796469   23.289214 H          1 MOL1         0.0783
       6    O2      16.326430   15.696656   24.087347 O.3        1 MOL1        -0.5519
       7    H3      15.728650   16.353149   23.651686 H          1 MOL1         0.3769
       8    C3      18.373249   14.938660   22.986757 C.3        1 MOL1         0.1053
       9    H4      18.622375   15.998095   22.866452 H          1 MOL1         0.0783
      10    O3      18.946369   14.455558   24.205694 O.3        1 MOL1        -0.5519
      11    H5      18.408910   14.871125   24.916787 H          1 MOL1         0.3769
      12    C4      18.962420   14.156457   21.785498 C.3        1 MOL1         0.1018
      13    H6      19.028668   13.095674   22.061961 H          1 MOL1         0.0783
      14    C5      18.149807   14.320671   20.467794 C.3        1 MOL1         0.1043
      15    H7      18.381092   15.308757   20.049199 H          1 MOL1         0.0783
      16    O4      16.726572   14.225808   20.727596 O.3        1 MOL1        -0.3740
      17    C6      18.500920   13.270856   19.390094 C.3        1 MOL1         0.0138
      18    H8      19.544734   13.408970   19.079550 H          1 MOL1         0.0794
      19    H9      17.873219   13.448601   18.506584 H          1 MOL1         0.0794
      20    O5      18.303403   11.941450   19.879672 O.3        1 MOL1        -0.5486
      21    H10     17.361869   11.886558   20.157293 H          1 MOL1         0.3769
      22    C7      15.088478   20.214766   20.269048 C.3        1 MOL1         0.2972
      23    H11     14.495785   21.046333   19.866634 H          1 MOL1         0.0751
      24    O6      16.359404   20.671816   20.773816 O.3        1 MOL1        -0.3740
      25    C8      14.309354   19.459216   21.381825 C.3        1 MOL1         0.1003
      26    H12     13.397166   19.061652   20.918137 H          1 MOL1         0.0783
      27    O7      13.934982   20.321720   22.466228 O.3        1 MOL1        -0.5519
      28    H13     14.775206   20.632815   22.888661 H          1 MOL1         0.3769
      29    C9      15.132224   18.260073   21.910123 C.3        1 MOL1         0.1053
      30    H14     16.017824   18.655883   22.426478 H          1 MOL1         0.0783
      31    O8      14.332620   17.505244   22.826485 O.3        1 MOL1        -0.5519
      32    H15     13.863546   18.177767   23.370534 H          1 MOL1         0.3769
      33    C10     15.615948   17.355195   20.747258 C.3        1 MOL1         0.1018
      34    H16     14.769290   16.783186   20.344371 H          1 MOL1         0.0783
      35    C11     16.254673   18.170859   19.592735 C.3        1 MOL1         0.1043
      36    H17     17.224100   18.558824   19.928207 H          1 MOL1         0.0783
      37    O9      15.367776   19.258126   19.225641 O.3        1 MOL1        -0.3740
      38    C12     16.485716   17.317772   18.328666 C.3        1 MOL1         0.0138
      39    H18     15.516627   16.988878   17.930341 H          1 MOL1         0.0794
      40    H19     17.059032   16.420666   18.592842 H          1 MOL1         0.0794
      41    O10     17.197629   18.080089   17.352352 O.3        1 MOL1        -0.5486
      42    H20     16.689229   18.912203   17.236099 H          1 MOL1         0.3769
      43    C13     18.424947   24.000844   22.075083 C.3        1 MOL1         0.2972
      44    H21     18.759319   24.978885   22.444623 H          1 MOL1         0.0751
      45    O11     19.526662   23.203647   21.596420 O.3        1 MOL1        -0.3740
      46    C14     17.684786   23.224462   23.194830 C.3        1 MOL1         0.1003
      47    H22     16.801838   23.815337   23.471435 H          1 MOL1         0.0783
      48    O12     18.508695   23.039468   24.356882 O.3        1 MOL1        -0.5519
      49    H23     19.359728   23.514862   24.193705 H          1 MOL1         0.3769
      50    C15     17.201649   21.853643   22.674801 C.3        1 MOL1         0.1053
      51    H24     18.091505   21.246099   22.470541 H          1 MOL1         0.0783
      52    O13     16.406461   21.224633   23.684470 O.3        1 MOL1        -0.5519
      53    H25     16.918123   21.352775   24.515042 H          1 MOL1         0.3769
      54    C16     16.395741   21.987856   21.358672 C.3        1 MOL1         0.1018
      55    H26     15.391300   22.361913   21.596590 H          1 MOL1         0.0783
      56    C17     17.079827   22.933450   20.329798 C.3        1 MOL1         0.1043
      57    H27     17.956999   22.416738   19.918103 H          1 MOL1         0.0783
      58    O14     17.498477   24.161520   20.979536 O.3        1 MOL1        -0.3740
      59    C18     16.169304   23.313949   19.141293 C.3        1 MOL1         0.0138
      60    H28     15.943486   22.410252   18.559945 H          1 MOL1         0.0794
      61    H29     16.718668   23.997517   18.480127 H          1 MOL1         0.0794
      62    O15     14.957520   23.925890   19.591757 O.3        1 MOL1        -0.5486
      63    H30     15.224082   24.711672   20.118962 H          1 MOL1         0.3769
      64    C19     23.620089   22.990244   21.504095 C.3        1 MOL1         0.2972
      65    H31     24.704196   23.135021   21.417617 H          1 MOL1         0.0751
      66    O16     23.263633   21.595380   21.631520 O.3        1 MOL1        -0.3740
      67    C20     23.073487   23.754482   22.733502 C.3        1 MOL1         0.1003
      68    H32     23.251541   24.823707   22.559144 H          1 MOL1         0.0783
      69    O17     23.745656   23.362319   23.939392 O.3        1 MOL1        -0.5519
      70    H33     23.917487   22.388142   23.880557 H          1 MOL1         0.3769
      71    C21     21.547913   23.544681   22.866470 C.3        1 MOL1         0.1053
      72    H34     21.370551   22.490591   23.121987 H          1 MOL1         0.0783
      73    O18     21.055074   24.387250   23.912633 O.3        1 MOL1        -0.5519
      74    H35     21.727847   24.317965   24.628295 H          1 MOL1         0.3769
      75    C22     20.809983   23.852686   21.535253 C.3        1 MOL1         0.1018
      76    H36     20.710359   24.939536   21.412276 H          1 MOL1         0.0783
      77    C23     21.523165   23.277242   20.280756 C.3        1 MOL1         0.1043
      78    H37     21.337829   22.198596   20.232635 H          1 MOL1         0.0783
      79    O19     22.948030   23.531455   20.349099 O.3        1 MOL1        -0.3740
      80    C24     20.990542   23.917729   18.981984 C.3        1 MOL1         0.0138
      81    H38     21.199607   24.995724   18.996659 H          1 MOL1         0.0794
      82    H39     19.900711   23.789782   18.937692 H          1 MOL1         0.0794
      83    O20     21.599210   23.306916   17.843627 O.3        1 MOL1        -0.5486
      84    H40     22.568805   23.386871   17.975274 H          1 MOL1         0.3769
      85    C25     24.977327   17.772535   21.455884 C.3        1 MOL1         0.2972
      86    H41     25.701672   16.954927   21.352167 H          1 MOL1         0.0751
      87    O21     23.625899   17.279744   21.566390 O.3        1 MOL1        -0.3740
      88    C26     25.301543   18.607446   22.721425 C.3        1 MOL1         0.1003
      89    H42     26.320292   18.998021   22.599767 H          1 MOL1         0.0783
      90    O22     25.253905   17.802781   23.909680 O.3        1 MOL1        -0.5519
      91    H43     24.635799   17.049381   23.733525 H          1 MOL1         0.3769
      92    C27     24.346928   19.817879   22.846977 C.3        1 MOL1         0.1053
      93    H44     23.329791   19.442812   23.026354 H          1 MOL1         0.0783
      94    O23     24.770094   20.630254   23.945065 O.3        1 MOL1        -0.5519
      95    H45     24.962959   19.991510   24.668357 H          1 MOL1         0.3769
      96    C28     24.342744   20.645020   21.538110 C.3        1 MOL1         0.1018
      97    H46     25.317499   21.138576   21.428985 H          1 MOL1         0.0783
      98    C29     24.089209   19.745755   20.299772 C.3        1 MOL1         0.1043
      99    H47     23.064214   19.358784   20.347330 H          1 MOL1         0.0783
     100    O24     25.045015   18.653725   20.312383 O.3        1 MOL1        -0.3740
     101    C30     24.261965   20.511997   18.970794 C.3        1 MOL1         0.0138
     102    H48     25.272816   20.938474   18.925260 H          1 MOL1         0.0794
     103    H49     23.546362   21.343296   18.938279 H          1 MOL1         0.0794
     104    O25     24.038857   19.637716   17.863171 O.3        1 MOL1        -0.5486
     105    H50     24.681624   18.902356   17.973125 H          1 MOL1         0.3769
     106    C31     21.324408   13.822807   21.237005 C.3        1 MOL1         0.2972
     107    H51     20.952405   12.808016   21.044647 H          1 MOL1         0.0751
     108    O26     20.257564   14.735263   21.551533 O.3        1 MOL1        -0.3740
     109    C32     22.317508   13.836467   22.426155 C.3        1 MOL1         0.1003
     110    H52     23.152289   13.173403   22.164345 H          1 MOL1         0.0783
     111    O27     21.691495   13.356445   23.627453 O.3        1 MOL1        -0.5519
     112    H53     20.834568   13.842500   23.731326 H          1 MOL1         0.3769
     113    C33     22.886926   15.260056   22.648928 C.3        1 MOL1         0.1053
     114    H54     22.070468   15.901882   23.007761 H          1 MOL1         0.0783
     115    O28     23.923144   15.201404   23.632268 O.3        1 MOL1        -0.5519
     116    H55     23.565008   14.629679   24.348120 H          1 MOL1         0.3769
     117    C34     23.437489   15.868286   21.332513 C.3        1 MOL1         0.1018
     118    H56     24.375718   15.362276   21.069129 H          1 MOL1         0.0783
     119    C35     22.437324   15.713372   20.157120 C.3        1 MOL1         0.1043
     120    H57     21.573946   16.363906   20.336642 H          1 MOL1         0.0783
     121    O29     22.014413   14.330844   20.075806 O.3        1 MOL1        -0.3740
     122    C36     23.049453   16.095946   18.795056 C.3        1 MOL1         0.0138
     123    H58     23.853227   15.391103   18.543853 H          1 MOL1         0.0794
     124    H59     23.491516   17.097018   18.865924 H          1 MOL1         0.0794
     125    O30     22.033294   16.085143   17.790012 O.3        1 MOL1        -0.5486
     126    H60     21.637002   15.186185   17.816786 H          1 MOL1         0.3769
     127    C1      19.497052   18.795330   23.192127 C.3        1 MOL1        -0.2398
     128    H1      18.428873   19.043873   23.153286 H          1 MOL1         0.0972
     129    H2      19.627613   18.007054   23.944701 H          1 MOL1         0.0972
     130    H3      20.046901   19.682598   23.532805 H          1 MOL1         0.0972
     131    C2      20.002778   18.320706   21.814662 C.3        1 MOL1        -0.1383
     132    H4      19.398058   17.470444   21.475019 H          1 MOL1         0.0961
     133    H5      21.034804   17.961318   21.913707 H          1 MOL1         0.0961
     134    C3      19.946667   19.438907   20.755558 C.3        1 MOL1        -0.1407
     135    H6      18.952255   19.902307   20.760459 H          1 MOL1         0.0961
     136    H7      20.665018   20.224547   21.022178 H          1 MOL1         0.0961
     137    C4      20.247769   18.894557   19.341307 C.3        1 MOL1        -0.1407
     138    H8      19.523353   18.107926   19.087990 H          1 MOL1         0.0961
     139    H9      21.239078   18.426932   19.332156 H          1 MOL1         0.0961
     140    C5      20.190237   20.006725   18.271257 C.3        1 MOL1        -0.1472
     141    H10     19.240100   20.548814   18.366302 H          1 MOL1         0.0961
     142    H11     20.991061   20.733171   18.454817 H          1 MOL1         0.0961
     143    C6      20.310542   19.465034   16.831414 C.3        1 MOL1         0.1190
     144    H12     19.493452   18.757458   16.657883 H          1 MOL1         0.0923
     145    C7      20.174414   20.616262   15.823087 C.3        1 MOL1        -0.2463
     146    H13     20.207389   20.237582   14.794477 H          1 MOL1         0.0972
     147    H14     19.220182   21.140407   15.956523 H          1 MOL1         0.0972
     148    H15     20.984439   21.346398   15.945998 H          1 MOL1         0.0972
     149    N1      21.591683   18.711807   16.600657 N.4        1 MOL1        -0.5974
     150    H16     22.413556   19.260867   16.897563 H          1 MOL1         0.3625
     151    H17     21.621152   17.828776   17.135298 H          1 MOL1         0.3625
     152    H18     21.716540   18.467110   15.616201 H          1 MOL1         0.3625
@<TRIPOS>BOND
    1     1     2    1
    2     1     3    1
    3     1     4    1
    4     4     5    1
    5     4     6    1
    6     6     7    1
    7     4     8    1
    8     8     9    1
    9     8    10    1
   10    10    11    1
   11     8    12    1
   12    12    13    1
   13    12    14    1
   14    14    15    1
   15     1    16    1
   16    14    16    1
   17    14    17    1
   18    17    18    1
   19    17    19    1
   20    17    20    1
   21    20    21    1
   22    22    23    1
   23    22    24    1
   24    22    25    1
   25    25    26    1
   26    25    27    1
   27    27    28    1
   28    25    29    1
   29    29    30    1
   30    29    31    1
   31    31    32    1
   32     3    33    1
   33    29    33    1
   34    33    34    1
   35    33    35    1
   36    35    36    1
   37    22    37    1
   38    35    37    1
   39    35    38    1
   40    38    39    1
   41    38    40    1
   42    38    41    1
   43    41    42    1
   44    43    44    1
   45    43    45    1
   46    43    46    1
   47    46    47    1
   48    46    48    1
   49    48    49    1
   50    46    50    1
   51    50    51    1
   52    50    52    1
   53    52    53    1
   54    24    54    1
   55    50    54    1
   56    54    55    1
   57    54    56    1
   58    56    57    1
   59    43    58    1
   60    56    58    1
   61    56    59    1
   62    59    60    1
   63    59    61    1
   64    59    62    1
   65    62    63    1
   66    64    65    1
   67    64    66    1
   68    64    67    1
   69    67    68    1
   70    67    69    1
   71    69    70    1
   72    67    71    1
   73    71    72    1
   74    71    73    1
   75    73    74    1
   76    45    75    1
   77    71    75    1
   78    75    76    1
   79    75    77    1
   80    77    78    1
   81    64    79    1
   82    77    79    1
   83    77    80    1
   84    80    81    1
   85    80    82    1
   86    80    83    1
   87    83    84    1
   88    85    86    1
   89    85    87    1
   90    85    88    1
   91    88    89    1
   92    88    90    1
   93    90    91    1
   94    88    92    1
   95    92    93    1
   96    92    94    1
   97    94    95    1
   98    66    96    1
   99    92    96    1
  100    96    97    1
  101    96    98    1
  102    98    99    1
  103    85   100    1
  104    98   100    1
  105    98   101    1
  106   101   102    1
  107   101   103    1
  108   101   104    1
  109   104   105    1
  110   106   107    1
  111    12   108    1
  112   106   108    1
  113   106   109    1
  114   109   110    1
  115   109   111    1
  116   111   112    1
  117   109   113    1
  118   113   114    1
  119   113   115    1
  120   115   116    1
  121    87   117    1
  122   113   117    1
  123   117   118    1
  124   117   119    1
  125   119   120    1
  126   106   121    1
  127   119   121    1
  128   119   122    1
  129   122   123    1
  130   122   124    1
  131   122   125    1
  132   125   126    1
  133   127   128    1
  134   127   129    1
  135   127   130    1
  136   127   131    1
  137   131   132    1
  138   131   133    1
  139   131   134    1
  140   134   135    1
  141   134   136    1
  142   134   137    1
  143   137   138    1
  144   137   139    1
  145   137   140    1
  146   140   141    1
  147   140   142    1
  148   140   143    1
  149   143   144    1
  150   143   145    1
  151   145   146    1
  152   145   147    1
  153   145   148    1
  154   143   149    1
  155   149   150    1
  156   149   151    1
  157   149   152    1
@<TRIPOS>SUBSTRUCTURE
       1 MOL1            1 RESIDUE      1      MOL     
       2 MOL1          152 RESIDUE      1      MOL     
@<SCITEGIC>MOL_PROPERTY
VM2 Rank
SciTegic.value.IntegerValue
2

@<SCITEGIC>MOL_PROPERTY
Conf_Id
SciTegic.value.IntegerValue
22778

@<SCITEGIC>MOL_PROPERTY
Probability
SciTegic.value.DoubleValue
1.95

@<SCITEGIC>MOL_PROPERTY
Sum Probability
SciTegic.value.DoubleValue
4.14

@<SCITEGIC>MOL_PROPERTY
Delta G
SciTegic.value.DoubleValue
0.069

@<SCITEGIC>MOL_PROPERTY
G
SciTegic.value.DoubleValue
542.087

@<SCITEGIC>MOL_PROPERTY
E
SciTegic.value.DoubleValue
337.963

@<SCITEGIC>MOL_PROPERTY
-TS
SciTegic.value.DoubleValue
204.125

@<SCITEGIC>MOL_PROPERTY
U+W
SciTegic.value.DoubleValue
203.826

@<SCITEGIC>MOL_PROPERTY
U
SciTegic.value.DoubleValue
265.536

@<SCITEGIC>MOL_PROPERTY
W
SciTegic.value.DoubleValue
-61.710

@<SCITEGIC>MOL_PROPERTY
W(PB)
SciTegic.value.DoubleValue
-67.745

@<SCITEGIC>MOL_PROPERTY
W(SA)
SciTegic.value.DoubleValue
6.035

@<SCITEGIC>MOL_PROPERTY
Valence
SciTegic.value.DoubleValue
150.026

@<SCITEGIC>MOL_PROPERTY
Coulomb
SciTegic.value.DoubleValue
141.606

@<SCITEGIC>MOL_PROPERTY
VdW
SciTegic.value.DoubleValue
-26.095

@<SCITEGIC>MOL_PROPERTY
VdW6
SciTegic.value.DoubleValue
-180.403

@<SCITEGIC>MOL_PROPERTY
VdW12
SciTegic.value.DoubleValue
154.308

@<SCITEGIC>MOL_PROPERTY
Bond
SciTegic.value.DoubleValue
4.227

@<SCITEGIC>MOL_PROPERTY
Angle
SciTegic.value.DoubleValue
9.601

@<SCITEGIC>MOL_PROPERTY
Pdih
SciTegic.value.DoubleValue
136.197

@<SCITEGIC>MOL_PROPERTY
Idih
SciTegic.value.DoubleValue
0.000

@<SCITEGIC>MOL_PROPERTY
Tether
SciTegic.value.DoubleValue
0.000

@<TRIPOS>MOLECULE
CD_guest-s13_vm2_rndm.mol2 : vm2 host+ligand conformer 3
         152         157           2
SMALL
USER_CHARGES
 
@<TRIPOS>ATOM
       1    C1      16.222069   15.327785   21.828130 C.3        1 MOL1         0.2972
       2    H1      15.160915   15.187649   22.071268 H          1 MOL1         0.0751
       3    O1      16.458174   16.580495   21.157836 O.3        1 MOL1        -0.3740
       4    C2      17.087491   15.280996   23.113803 C.3        1 MOL1         0.1003
       5    H2      16.959967   14.285011   23.557527 H          1 MOL1         0.0783
       6    O2      16.681464   16.278529   24.065189 O.3        1 MOL1        -0.5519
       7    H3      15.817252   16.644039   23.756586 H          1 MOL1         0.3769
       8    C3      18.580774   15.469214   22.764659 C.3        1 MOL1         0.1053
       9    H4      18.704423   16.495800   22.398287 H          1 MOL1         0.0783
      10    O3      19.371546   15.274918   23.941844 O.3        1 MOL1        -0.5519
      11    H5      18.910094   15.796171   24.636569 H          1 MOL1         0.3769
      12    C4      19.041760   14.500099   21.647640 C.3        1 MOL1         0.1018
      13    H6      19.171801   13.500727   22.083071 H          1 MOL1         0.0783
      14    C5      18.040589   14.428608   20.458665 C.3        1 MOL1         0.1043
      15    H7      18.120835   15.361939   19.885525 H          1 MOL1         0.0783
      16    O4      16.686502   14.275269   20.956339 O.3        1 MOL1        -0.3740
      17    C6      18.316708   13.263737   19.481964 C.3        1 MOL1         0.0138
      18    H8      19.281069   13.433529   18.985384 H          1 MOL1         0.0794
      19    H9      17.544660   13.267883   18.700861 H          1 MOL1         0.0794
      20    O5      18.326546   12.005880   20.162982 O.3        1 MOL1        -0.5486
      21    H10     17.448076   11.918836   20.595622 H          1 MOL1         0.3769
      22    C7      14.734662   20.206201   20.371604 C.3        1 MOL1         0.2972
      23    H11     14.142693   21.075291   20.056553 H          1 MOL1         0.0751
      24    O6      16.080265   20.584701   20.737760 O.3        1 MOL1        -0.3740
      25    C8      14.051721   19.451721   21.543092 C.3        1 MOL1         0.1003
      26    H12     13.103344   19.054578   21.158150 H          1 MOL1         0.0783
      27    O7      13.768876   20.312526   22.655255 O.3        1 MOL1        -0.5519
      28    H13     14.641971   20.605799   23.019069 H          1 MOL1         0.3769
      29    C9      14.922693   18.252058   21.986438 C.3        1 MOL1         0.1053
      30    H14     15.852111   18.649158   22.418347 H          1 MOL1         0.0783
      31    O8      14.215241   17.496517   22.975670 O.3        1 MOL1        -0.5519
      32    H15     13.781126   18.169195   23.548310 H          1 MOL1         0.3769
      33    C10     15.300767   17.346445   20.781190 C.3        1 MOL1         0.1018
      34    H16     14.453297   16.698959   20.519120 H          1 MOL1         0.0783
      35    C11     15.731565   18.144357   19.521121 C.3        1 MOL1         0.1043
      36    H17     16.751286   18.512213   19.680945 H          1 MOL1         0.0783
      37    O9      14.830678   19.256264   19.290937 O.3        1 MOL1        -0.3740
      38    C12     15.734287   17.265875   18.253352 C.3        1 MOL1         0.0138
      39    H18     14.710254   16.930523   18.041402 H          1 MOL1         0.0794
      40    H19     16.348353   16.373389   18.433100 H          1 MOL1         0.0794
      41    O10     16.259254   18.004603   17.149109 O.3        1 MOL1        -0.5486
      42    H20     15.730126   18.830903   17.101455 H          1 MOL1         0.3769
      43    C13     18.443078   23.760254   21.980476 C.3        1 MOL1         0.2972
      44    H21     18.818326   24.725228   22.344172 H          1 MOL1         0.0751
      45    O11     19.510004   22.941093   21.458130 O.3        1 MOL1        -0.3740
      46    C14     17.719585   23.000057   23.124405 C.3        1 MOL1         0.1003
      47    H22     16.896436   23.642076   23.464211 H          1 MOL1         0.0783
      48    O12     18.594304   22.734110   24.232271 O.3        1 MOL1        -0.5519
      49    H23     19.341692   23.376452   24.171637 H          1 MOL1         0.3769
      50    C15     17.114380   21.672915   22.616813 C.3        1 MOL1         0.1053
      51    H24     17.942629   21.001512   22.365654 H          1 MOL1         0.0783
      52    O13     16.333522   21.096114   23.666576 O.3        1 MOL1        -0.5519
      53    H25     16.905209   21.169041   24.464235 H          1 MOL1         0.3769
      54    C16     16.256177   21.880091   21.343114 C.3        1 MOL1         0.1018
      55    H26     15.298494   22.334798   21.629289 H          1 MOL1         0.0783
      56    C17     16.971547   22.772103   20.290675 C.3        1 MOL1         0.1043
      57    H27     17.802224   22.198178   19.859070 H          1 MOL1         0.0783
      58    O14     17.485168   23.971440   20.921233 O.3        1 MOL1        -0.3740
      59    C18     16.050207   23.204645   19.128474 C.3        1 MOL1         0.0138
      60    H28     15.738984   22.312838   18.568298 H          1 MOL1         0.0794
      61    H29     16.623851   23.839252   18.439750 H          1 MOL1         0.0794
      62    O15     14.902052   23.907478   19.612270 O.3        1 MOL1        -0.5486
      63    H30     15.243468   24.674711   20.123436 H          1 MOL1         0.3769
      64    C19     23.676291   22.880407   21.561241 C.3        1 MOL1         0.2972
      65    H31     24.743647   23.121806   21.481291 H          1 MOL1         0.0751
      66    O16     23.458212   21.488545   21.858463 O.3        1 MOL1        -0.3740
      67    C20     23.025562   23.703194   22.696323 C.3        1 MOL1         0.1003
      68    H32     23.170476   24.764684   22.456578 H          1 MOL1         0.0783
      69    O17     23.654820   23.411204   23.954821 O.3        1 MOL1        -0.5519
      70    H33     23.862077   22.443197   23.958707 H          1 MOL1         0.3769
      71    C21     21.502248   23.435982   22.780198 C.3        1 MOL1         0.1053
      72    H34     21.357789   22.408092   23.141025 H          1 MOL1         0.0783
      73    O18     20.941274   24.364432   23.714965 O.3        1 MOL1        -0.5519
      74    H35     21.590195   24.398145   24.454806 H          1 MOL1         0.3769
      75    C22     20.813332   23.557319   21.388535 C.3        1 MOL1         0.1018
      76    H36     20.737549   24.614964   21.102828 H          1 MOL1         0.0783
      77    C23     21.599035   22.802336   20.282728 C.3        1 MOL1         0.1043
      78    H37     21.500547   21.721630   20.449204 H          1 MOL1         0.0783
      79    O19     22.988126   23.202444   20.337455 O.3        1 MOL1        -0.3740
      80    C24     21.092025   23.117337   18.860245 C.3        1 MOL1         0.0138
      81    H38     21.300110   24.169706   18.625416 H          1 MOL1         0.0794
      82    H39     20.003902   22.977886   18.822285 H          1 MOL1         0.0794
      83    O20     21.732313   22.253559   17.914851 O.3        1 MOL1        -0.5486
      84    H40     22.698977   22.364811   18.054012 H          1 MOL1         0.3769
      85    C25     25.208588   17.746128   21.679662 C.3        1 MOL1         0.2972
      86    H41     25.894698   16.892609   21.609880 H          1 MOL1         0.0751
      87    O21     23.829349   17.328209   21.692211 O.3        1 MOL1        -0.3740
      88    C26     25.481237   18.537259   22.981961 C.3        1 MOL1         0.1003
      89    H42     26.518343   18.894792   22.941661 H          1 MOL1         0.0783
      90    O22     25.315418   17.694942   24.133784 O.3        1 MOL1        -0.5519
      91    H43     24.660289   16.993457   23.891149 H          1 MOL1         0.3769
      92    C27     24.553596   19.770735   23.074082 C.3        1 MOL1         0.1053
      93    H44     23.525553   19.410565   23.212785 H          1 MOL1         0.0783
      94    O23     24.933334   20.577505   24.194028 O.3        1 MOL1        -0.5519
      95    H45     25.051620   19.942828   24.935643 H          1 MOL1         0.3769
      96    C28     24.602061   20.619271   21.778602 C.3        1 MOL1         0.1018
      97    H46     25.547821   21.176802   21.757770 H          1 MOL1         0.0783
      98    C29     24.472521   19.758255   20.490516 C.3        1 MOL1         0.1043
      99    H47     23.439400   19.395541   20.416569 H          1 MOL1         0.0783
     100    O24     25.397967   18.645088   20.567884 O.3        1 MOL1        -0.3740
     101    C30     24.806404   20.535171   19.197919 C.3        1 MOL1         0.0138
     102    H48     25.893639   20.671546   19.124623 H          1 MOL1         0.0794
     103    H49     24.355568   21.530198   19.237838 H          1 MOL1         0.0794
     104    O25     24.303785   19.841934   18.053371 O.3        1 MOL1        -0.5486
     105    H50     24.759218   18.973977   18.022920 H          1 MOL1         0.3769
     106    C31     21.338041   14.091400   20.883226 C.3        1 MOL1         0.2972
     107    H51     20.936303   13.117689   20.575104 H          1 MOL1         0.0751
     108    O26     20.280537   15.035746   21.142399 O.3        1 MOL1        -0.3740
     109    C32     22.241705   13.946123   22.141164 C.3        1 MOL1         0.1003
     110    H52     23.053291   13.256978   21.873880 H          1 MOL1         0.0783
     111    O27     21.525802   13.405482   23.262289 O.3        1 MOL1        -0.5519
     112    H53     20.810251   14.052614   23.487676 H          1 MOL1         0.3769
     113    C33     22.879452   15.302309   22.524816 C.3        1 MOL1         0.1053
     114    H54     22.077345   15.968910   22.869858 H          1 MOL1         0.0783
     115    O28     23.830675   15.107070   23.576202 O.3        1 MOL1        -0.5519
     116    H55     23.387004   14.508229   24.217607 H          1 MOL1         0.3769
     117    C34     23.571817   15.964377   21.308786 C.3        1 MOL1         0.1018
     118    H56     24.492978   15.415231   21.072805 H          1 MOL1         0.0783
     119    C35     22.655294   15.983727   20.059172 C.3        1 MOL1         0.1043
     120    H57     21.832675   16.680577   20.249273 H          1 MOL1         0.0783
     121    O29     22.147645   14.646772   19.824704 O.3        1 MOL1        -0.3740
     122    C36     23.385020   16.439009   18.778819 C.3        1 MOL1         0.0138
     123    H58     24.053239   15.638842   18.433569 H          1 MOL1         0.0794
     124    H59     24.004469   17.311051   19.006500 H          1 MOL1         0.0794
     125    O30     22.436851   16.783627   17.766561 O.3        1 MOL1        -0.5486
     126    H60     21.902557   15.975905   17.603592 H          1 MOL1         0.3769
     127    C1      19.995705   19.138313   23.467436 C.3        1 MOL1        -0.2398
     128    H1      18.979482   18.751304   23.621368 H          1 MOL1         0.0972
     129    H2      20.633842   18.736174   24.264709 H          1 MOL1         0.0972
     130    H3      19.966307   20.230308   23.577893 H          1 MOL1         0.0972
     131    C2      20.540312   18.735489   22.081643 C.3        1 MOL1        -0.1383
     132    H4      20.616235   17.643076   22.022155 H          1 MOL1         0.0961
     133    H5      21.558456   19.128627   21.963936 H          1 MOL1         0.0961
     134    C3      19.646680   19.263832   20.940051 C.3        1 MOL1        -0.1407
     135    H6      18.616384   18.906925   21.074749 H          1 MOL1         0.0961
     136    H7      19.614627   20.358189   20.995320 H          1 MOL1         0.0961
     137    C4      20.168392   18.839921   19.550715 C.3        1 MOL1        -0.1407
     138    H8      20.033668   17.757659   19.418832 H          1 MOL1         0.0961
     139    H9      21.246303   19.041299   19.499013 H          1 MOL1         0.0961
     140    C5      19.444652   19.594861   18.411727 C.3        1 MOL1        -0.1472
     141    H10     18.370772   19.381233   18.456842 H          1 MOL1         0.0961
     142    H11     19.550810   20.674626   18.566478 H          1 MOL1         0.0961
     143    C6      19.966417   19.229761   17.005987 C.3        1 MOL1         0.1190
     144    H12     19.792935   18.162955   16.834350 H          1 MOL1         0.0923
     145    C7      19.198561   20.025670   15.939420 C.3        1 MOL1        -0.2463
     146    H13     19.528396   19.742619   14.932606 H          1 MOL1         0.0972
     147    H14     18.121823   19.827306   16.005743 H          1 MOL1         0.0972
     148    H15     19.358732   21.104514   16.061921 H          1 MOL1         0.0972
     149    N1      21.446068   19.457411   16.864333 N.4        1 MOL1        -0.5974
     150    H16     21.709566   20.401014   17.188270 H          1 MOL1         0.3625
     151    H17     21.987150   18.773107   17.416044 H          1 MOL1         0.3625
     152    H18     21.754247   19.361703   15.894672 H          1 MOL1         0.3625
@<TRIPOS>BOND
    1     1     2    1
    2     1     3    1
    3     1     4    1
    4     4     5    1
    5     4     6    1
    6     6     7    1
    7     4     8    1
    8     8     9    1
    9     8    10    1
   10    10    11    1
   11     8    12    1
   12    12    13    1
   13    12    14    1
   14    14    15    1
   15     1    16    1
   16    14    16    1
   17    14    17    1
   18    17    18    1
   19    17    19    1
   20    17    20    1
   21    20    21    1
   22    22    23    1
   23    22    24    1
   24    22    25    1
   25    25    26    1
   26    25    27    1
   27    27    28    1
   28    25    29    1
   29    29    30    1
   30    29    31    1
   31    31    32    1
   32     3    33    1
   33    29    33    1
   34    33    34    1
   35    33    35    1
   36    35    36    1
   37    22    37    1
   38    35    37    1
   39    35    38    1
   40    38    39    1
   41    38    40    1
   42    38    41    1
   43    41    42    1
   44    43    44    1
   45    43    45    1
   46    43    46    1
   47    46    47    1
   48    46    48    1
   49    48    49    1
   50    46    50    1
   51    50    51    1
   52    50    52    1
   53    52    53    1
   54    24    54    1
   55    50    54    1
   56    54    55    1
   57    54    56    1
   58    56    57    1
   59    43    58    1
   60    56    58    1
   61    56    59    1
   62    59    60    1
   63    59    61    1
   64    59    62    1
   65    62    63    1
   66    64    65    1
   67    64    66    1
   68    64    67    1
   69    67    68    1
   70    67    69    1
   71    69    70    1
   72    67    71    1
   73    71    72    1
   74    71    73    1
   75    73    74    1
   76    45    75    1
   77    71    75    1
   78    75    76    1
   79    75    77    1
   80    77    78    1
   81    64    79    1
   82    77    79    1
   83    77    80    1
   84    80    81    1
   85    80    82    1
   86    80    83    1
   87    83    84    1
   88    85    86    1
   89    85    87    1
   90    85    88    1
   91    88    89    1
   92    88    90    1
   93    90    91    1
   94    88    92    1
   95    92    93    1
   96    92    94    1
   97    94    95    1
   98    66    96    1
   99    92    96    1
  100    96    97    1
  101    96    98    1
  102    98    99    1
  103    85   100    1
  104    98   100    1
  105    98   101    1
  106   101   102    1
  107   101   103    1
  108   101   104    1
  109   104   105    1
  110   106   107    1
  111    12   108    1
  112   106   108    1
  113   106   109    1
  114   109   110    1
  115   109   111    1
  116   111   112    1
  117   109   113    1
  118   113   114    1
  119   113   115    1
  120   115   116    1
  121    87   117    1
  122   113   117    1
  123   117   118    1
  124   117   119    1
  125   119   120    1
  126   106   121    1
  127   119   121    1
  128   119   122    1
  129   122   123    1
  130   122   124    1
  131   122   125    1
  132   125   126    1
  133   127   128    1
  134   127   129    1
  135   127   130    1
  136   127   131    1
  137   131   132    1
  138   131   133    1
  139   131   134    1
  140   134   135    1
  141   134   136    1
  142   134   137    1
  143   137   138    1
  144   137   139    1
  145   137   140    1
  146   140   141    1
  147   140   142    1
  148   140   143    1
  149   143   144    1
  150   143   145    1
  151   145   146    1
  152   145   147    1
  153   145   148    1
  154   143   149    1
  155   149   150    1
  156   149   151    1
  157   149   152    1
@<TRIPOS>SUBSTRUCTURE
       1 MOL1            1 RESIDUE      1      MOL     
       2 MOL1          152 RESIDUE      1      MOL     
@<SCITEGIC>MOL_PROPERTY
VM2 Rank
SciTegic.value.IntegerValue
3

@<SCITEGIC>MOL_PROPERTY
Conf_Id
SciTegic.value.IntegerValue
15883

@<SCITEGIC>MOL_PROPERTY
Probability
SciTegic.value.DoubleValue
1.68

@<SCITEGIC>MOL_PROPERTY
Sum Probability
SciTegic.value.DoubleValue
5.82

@<SCITEGIC>MOL_PROPERTY
Delta G
SciTegic.value.DoubleValue
0.157

@<SCITEGIC>MOL_PROPERTY
G
SciTegic.value.DoubleValue
542.174

@<SCITEGIC>MOL_PROPERTY
E
SciTegic.value.DoubleValue
337.599

@<SCITEGIC>MOL_PROPERTY
-TS
SciTegic.value.DoubleValue
204.576

@<SCITEGIC>MOL_PROPERTY
U+W
SciTegic.value.DoubleValue
203.462

@<SCITEGIC>MOL_PROPERTY
U
SciTegic.value.DoubleValue
263.912

@<SCITEGIC>MOL_PROPERTY
W
SciTegic.value.DoubleValue
-60.450

@<SCITEGIC>MOL_PROPERTY
W(PB)
SciTegic.value.DoubleValue
-66.434

@<SCITEGIC>MOL_PROPERTY
W(SA)
SciTegic.value.DoubleValue
5.983

@<SCITEGIC>MOL_PROPERTY
Valence
SciTegic.value.DoubleValue
147.710

@<SCITEGIC>MOL_PROPERTY
Coulomb
SciTegic.value.DoubleValue
143.383

@<SCITEGIC>MOL_PROPERTY
VdW
SciTegic.value.DoubleValue
-27.181

@<SCITEGIC>MOL_PROPERTY
VdW6
SciTegic.value.DoubleValue
-183.026

@<SCITEGIC>MOL_PROPERTY
VdW12
SciTegic.value.DoubleValue
155.845

@<SCITEGIC>MOL_PROPERTY
Bond
SciTegic.value.DoubleValue
4.245

@<SCITEGIC>MOL_PROPERTY
Angle
SciTegic.value.DoubleValue
10.253

@<SCITEGIC>MOL_PROPERTY
Pdih
SciTegic.value.DoubleValue
133.212

@<SCITEGIC>MOL_PROPERTY
Idih
SciTegic.value.DoubleValue
0.000

@<SCITEGIC>MOL_PROPERTY
Tether
SciTegic.value.DoubleValue
0.000

@<TRIPOS>MOLECULE
CD_guest-s13_vm2_rndm.mol2 : vm2 host+ligand conformer 4
         152         157           2
SMALL
USER_CHARGES
 
@<TRIPOS>ATOM
       1    C1      16.236645   15.267735   21.893267 C.3        1 MOL1         0.2972
       2    H1      15.195297   15.083285   22.187479 H          1 MOL1         0.0751
       3    O1      16.409481   16.579967   21.326742 O.3        1 MOL1        -0.3740
       4    C2      17.177532   15.131206   23.117084 C.3        1 MOL1         0.1003
       5    H2      17.094045   14.098704   23.480570 H          1 MOL1         0.0783
       6    O2      16.806559   16.034034   24.171785 O.3        1 MOL1        -0.5519
       7    H3      16.007568   16.530120   23.867709 H          1 MOL1         0.3769
       8    C3      18.645550   15.378705   22.701842 C.3        1 MOL1         0.1053
       9    H4      18.733700   16.434042   22.415774 H          1 MOL1         0.0783
      10    O3      19.501551   15.104113   23.815318 O.3        1 MOL1        -0.5519
      11    H5      19.073788   15.561373   24.573916 H          1 MOL1         0.3769
      12    C4      19.053540   14.509034   21.485242 C.3        1 MOL1         0.1018
      13    H6      19.204112   13.476864   21.827496 H          1 MOL1         0.0783
      14    C5      17.989754   14.531809   20.350479 C.3        1 MOL1         0.1043
      15    H7      18.026588   15.515820   19.864205 H          1 MOL1         0.0783
      16    O4      16.666946   14.308171   20.904066 O.3        1 MOL1        -0.3740
      17    C6      18.228523   13.467421   19.256497 C.3        1 MOL1         0.0138
      18    H8      19.167320   13.695033   18.734545 H          1 MOL1         0.0794
      19    H9      17.420310   13.534943   18.515937 H          1 MOL1         0.0794
      20    O5      18.281128   12.151736   19.815312 O.3        1 MOL1        -0.5486
      21    H10     17.426807   12.015611   20.282270 H          1 MOL1         0.3769
      22    C7      14.609228   20.181817   20.667403 C.3        1 MOL1         0.2972
      23    H11     13.992588   21.051422   20.405493 H          1 MOL1         0.0751
      24    O6      15.987713   20.554855   20.892254 O.3        1 MOL1        -0.3740
      25    C8      14.046884   19.442770   21.910358 C.3        1 MOL1         0.1003
      26    H12     13.065112   19.040642   21.627996 H          1 MOL1         0.0783
      27    O7      13.876437   20.318967   23.033090 O.3        1 MOL1        -0.5519
      28    H13     14.779128   20.632970   23.292178 H          1 MOL1         0.3769
      29    C9      14.961018   18.249049   22.276447 C.3        1 MOL1         0.1053
      30    H14     15.928958   18.652420   22.605938 H          1 MOL1         0.0783
      31    O8      14.365679   17.498836   23.339746 O.3        1 MOL1        -0.5519
      32    H15     14.004503   18.173554   23.958444 H          1 MOL1         0.3769
      33    C10     15.213348   17.328738   21.051229 C.3        1 MOL1         0.1018
      34    H16     14.346410   16.673414   20.892388 H          1 MOL1         0.0783
      35    C11     15.500879   18.104701   19.738018 C.3        1 MOL1         0.1043
      36    H17     16.532695   18.469021   19.774773 H          1 MOL1         0.0783
      37    O9      14.586447   19.219782   19.593165 O.3        1 MOL1        -0.3740
      38    C12     15.353947   17.204271   18.494226 C.3        1 MOL1         0.0138
      39    H18     14.311802   16.868242   18.410235 H          1 MOL1         0.0794
      40    H19     15.983801   16.313056   18.616716 H          1 MOL1         0.0794
      41    O10     15.745363   17.920966   17.322336 O.3        1 MOL1        -0.5486
      42    H20     15.213624   18.747047   17.321147 H          1 MOL1         0.3769
      43    C13     18.488140   23.748955   21.790908 C.3        1 MOL1         0.2972
      44    H21     18.898378   24.725999   22.075719 H          1 MOL1         0.0751
      45    O11     19.505252   22.891739   21.230633 O.3        1 MOL1        -0.3740
      46    C14     17.848500   23.053649   23.022822 C.3        1 MOL1         0.1003
      47    H22     17.059923   23.721537   23.393377 H          1 MOL1         0.0783
      48    O12     18.804207   22.830431   24.071704 O.3        1 MOL1        -0.5519
      49    H23     19.536469   23.479066   23.938691 H          1 MOL1         0.3769
      50    C15     17.193623   21.711458   22.627230 C.3        1 MOL1         0.1053
      51    H24     17.992424   21.021696   22.335698 H          1 MOL1         0.0783
      52    O13     16.502396   21.187997   23.763804 O.3        1 MOL1        -0.5519
      53    H25     17.137435   21.299855   24.507358 H          1 MOL1         0.3769
      54    C16     16.233158   21.872621   21.421824 C.3        1 MOL1         0.1018
      55    H26     15.309263   22.356939   21.765085 H          1 MOL1         0.0783
      56    C17     16.872779   22.701987   20.273524 C.3        1 MOL1         0.1043
      57    H27     17.658779   22.094864   19.805430 H          1 MOL1         0.0783
      58    O14     17.451749   23.921548   20.800328 O.3        1 MOL1        -0.3740
      59    C18     15.865142   23.093378   19.169834 C.3        1 MOL1         0.0138
      60    H28     15.495967   22.180789   18.683048 H          1 MOL1         0.0794
      61    H29     16.388894   23.682674   18.405290 H          1 MOL1         0.0794
      62    O15     14.770969   23.840078   19.709810 O.3        1 MOL1        -0.5486
      63    H30     15.164356   24.625124   20.151913 H          1 MOL1         0.3769
      64    C19     23.665453   22.725550   21.113098 C.3        1 MOL1         0.2972
      65    H31     24.734987   22.908154   20.946173 H          1 MOL1         0.0751
      66    O16     23.409285   21.369651   21.517652 O.3        1 MOL1        -0.3740
      67    C20     23.103579   23.663065   22.208822 C.3        1 MOL1         0.1003
      68    H32     23.253628   24.693947   21.862460 H          1 MOL1         0.0783
      69    O17     23.795317   23.480353   23.455187 O.3        1 MOL1        -0.5519
      70    H33     23.781595   22.512034   23.664252 H          1 MOL1         0.3769
      71    C21     21.582688   23.440413   22.402313 C.3        1 MOL1         0.1053
      72    H34     21.439799   22.445679   22.846921 H          1 MOL1         0.0783
      73    O18     21.097352   24.448164   23.296648 O.3        1 MOL1        -0.5519
      74    H35     21.797788   24.534163   23.983406 H          1 MOL1         0.3769
      75    C22     20.813462   23.476455   21.047994 C.3        1 MOL1         0.1018
      76    H36     20.736815   24.513444   20.694874 H          1 MOL1         0.0783
      77    C23     21.516551   22.631182   19.950923 C.3        1 MOL1         0.1043
      78    H37     21.390002   21.566271   20.186116 H          1 MOL1         0.0783
      79    O19     22.922528   22.975583   19.903530 O.3        1 MOL1        -0.3740
      80    C24     20.935927   22.886077   18.544399 C.3        1 MOL1         0.0138
      81    H38     21.119805   23.930895   18.260582 H          1 MOL1         0.0794
      82    H39     19.849027   22.735078   18.566565 H          1 MOL1         0.0794
      83    O20     21.541686   21.996268   17.601683 O.3        1 MOL1        -0.5486
      84    H40     22.509298   22.150443   17.683564 H          1 MOL1         0.3769
      85    C25     25.057349   17.705180   22.102757 C.3        1 MOL1         0.2972
      86    H41     25.647083   16.797349   22.284672 H          1 MOL1         0.0751
      87    O21     23.741483   17.398286   21.596628 O.3        1 MOL1        -0.3740
      88    C26     24.913572   18.521447   23.411014 C.3        1 MOL1         0.1003
      89    H42     25.920648   18.835146   23.715196 H          1 MOL1         0.0783
      90    O22     24.328090   17.729748   24.456963 O.3        1 MOL1        -0.5519
      91    H43     24.082697   16.858057   24.059648 H          1 MOL1         0.3769
      92    C27     24.067252   19.790658   23.166619 C.3        1 MOL1         0.1053
      93    H44     23.037316   19.465063   22.986387 H          1 MOL1         0.0783
      94    O23     24.098524   20.625576   24.328367 O.3        1 MOL1        -0.5519
      95    H45     23.936436   20.013990   25.081171 H          1 MOL1         0.3769
      96    C28     24.547807   20.595560   21.931821 C.3        1 MOL1         0.1018
      97    H46     25.389907   21.230786   22.237609 H          1 MOL1         0.0783
      98    C29     24.951807   19.713391   20.714048 C.3        1 MOL1         0.1043
      99    H47     24.029631   19.381230   20.220093 H          1 MOL1         0.0783
     100    O24     25.713917   18.556909   21.142665 O.3        1 MOL1        -0.3740
     101    C30     25.791548   20.464801   19.657236 C.3        1 MOL1         0.0138
     102    H48     25.183547   21.266703   19.218457 H          1 MOL1         0.0794
     103    H49     26.043680   19.768119   18.846511 H          1 MOL1         0.0794
     104    O25     26.982949   21.007268   20.233604 O.3        1 MOL1        -0.5486
     105    H50     27.471417   20.248353   20.623542 H          1 MOL1         0.3769
     106    C31     21.325000   14.169132   20.608499 C.3        1 MOL1         0.2972
     107    H51     20.922559   13.217939   20.237162 H          1 MOL1         0.0751
     108    O26     20.265599   15.085043   20.956861 O.3        1 MOL1        -0.3740
     109    C32     22.260293   13.938803   21.829488 C.3        1 MOL1         0.1003
     110    H52     23.081606   13.297066   21.484888 H          1 MOL1         0.0783
     111    O27     21.587983   13.282837   22.914960 O.3        1 MOL1        -0.5519
     112    H53     20.879365   13.900020   23.228560 H          1 MOL1         0.3769
     113    C33     22.874617   15.273580   22.313384 C.3        1 MOL1         0.1053
     114    H54     22.062568   15.892720   22.719609 H          1 MOL1         0.0783
     115    O28     23.839155   15.008657   23.337212 O.3        1 MOL1        -0.5519
     116    H55     23.428449   14.316061   23.902808 H          1 MOL1         0.3769
     117    C34     23.533360   16.048751   21.143079 C.3        1 MOL1         0.1018
     118    H56     24.476055   15.564685   20.854472 H          1 MOL1         0.0783
     119    C35     22.611557   16.127374   19.898593 C.3        1 MOL1         0.1043
     120    H57     21.779403   16.801361   20.125048 H          1 MOL1         0.0783
     121    O29     22.116266   14.802905   19.580220 O.3        1 MOL1        -0.3740
     122    C36     23.340083   16.672364   18.652190 C.3        1 MOL1         0.0138
     123    H58     24.070811   15.930133   18.304044 H          1 MOL1         0.0794
     124    H59     23.893440   17.580263   18.920956 H          1 MOL1         0.0794
     125    O30     22.391893   16.970443   17.624212 O.3        1 MOL1        -0.5486
     126    H60     21.913960   16.129695   17.448075 H          1 MOL1         0.3769
     127    C1      20.071954   19.238882   23.207625 C.3        1 MOL1        -0.2398
     128    H1      20.776337   18.857898   23.958403 H          1 MOL1         0.0972
     129    H2      20.088887   20.335352   23.257952 H          1 MOL1         0.0972
     130    H3      19.066196   18.896780   23.485605 H          1 MOL1         0.0972
     131    C2      20.458518   18.742041   21.799610 C.3        1 MOL1        -0.1383
     132    H4      20.515891   17.647349   21.805724 H          1 MOL1         0.0961
     133    H5      21.460877   19.107320   21.543569 H          1 MOL1         0.0961
     134    C3      19.460768   19.212186   20.721866 C.3        1 MOL1        -0.1407
     135    H6      18.454786   18.838918   20.955260 H          1 MOL1         0.0961
     136    H7      19.408200   20.306990   20.740443 H          1 MOL1         0.0961
     137    C4      19.885674   18.750348   19.311549 C.3        1 MOL1        -0.1407
     138    H8      19.779851   17.659606   19.229860 H          1 MOL1         0.0961
     139    H9      20.950077   18.981911   19.172895 H          1 MOL1         0.0961
     140    C5      19.059320   19.444377   18.203312 C.3        1 MOL1        -0.1472
     141    H10     17.998098   19.208020   18.335705 H          1 MOL1         0.0961
     142    H11     19.149366   20.531793   18.309486 H          1 MOL1         0.0961
     143    C6      19.484577   19.038073   16.776882 C.3        1 MOL1         0.1190
     144    H12     19.331258   17.961031   16.658745 H          1 MOL1         0.0923
     145    C7      18.616638   19.769387   15.741170 C.3        1 MOL1        -0.2463
     146    H13     18.881305   19.457198   14.723730 H          1 MOL1         0.0972
     147    H14     17.554428   19.541849   15.893432 H          1 MOL1         0.0972
     148    H15     18.749223   20.856440   15.811531 H          1 MOL1         0.0972
     149    N1      20.942002   19.301926   16.519506 N.4        1 MOL1        -0.5974
     150    H16     21.191300   20.265999   16.790424 H          1 MOL1         0.3625
     151    H17     21.537422   18.654682   17.059930 H          1 MOL1         0.3625
     152    H18     21.180645   19.176770   15.533417 H          1 MOL1         0.3625
@<TRIPOS>BOND
    1     1     2    1
    2     1     3    1
    3     1     4    1
    4     4     5    1
    5     4     6    1
    6     6     7    1
    7     4     8    1
    8     8     9    1
    9     8    10    1
   10    10    11    1
   11     8    12    1
   12    12    13    1
   13    12    14    1
   14    14    15    1
   15     1    16    1
   16    14    16    1
   17    14    17    1
   18    17    18    1
   19    17    19    1
   20    17    20    1
   21    20    21    1
   22    22    23    1
   23    22    24    1
   24    22    25    1
   25    25    26    1
   26    25    27    1
   27    27    28    1
   28    25    29    1
   29    29    30    1
   30    29    31    1
   31    31    32    1
   32     3    33    1
   33    29    33    1
   34    33    34    1
   35    33    35    1
   36    35    36    1
   37    22    37    1
   38    35    37    1
   39    35    38    1
   40    38    39    1
   41    38    40    1
   42    38    41    1
   43    41    42    1
   44    43    44    1
   45    43    45    1
   46    43    46    1
   47    46    47    1
   48    46    48    1
   49    48    49    1
   50    46    50    1
   51    50    51    1
   52    50    52    1
   53    52    53    1
   54    24    54    1
   55    50    54    1
   56    54    55    1
   57    54    56    1
   58    56    57    1
   59    43    58    1
   60    56    58    1
   61    56    59    1
   62    59    60    1
   63    59    61    1
   64    59    62    1
   65    62    63    1
   66    64    65    1
   67    64    66    1
   68    64    67    1
   69    67    68    1
   70    67    69    1
   71    69    70    1
   72    67    71    1
   73    71    72    1
   74    71    73    1
   75    73    74    1
   76    45    75    1
   77    71    75    1
   78    75    76    1
   79    75    77    1
   80    77    78    1
   81    64    79    1
   82    77    79    1
   83    77    80    1
   84    80    81    1
   85    80    82    1
   86    80    83    1
   87    83    84    1
   88    85    86    1
   89    85    87    1
   90    85    88    1
   91    88    89    1
   92    88    90    1
   93    90    91    1
   94    88    92    1
   95    92    93    1
   96    92    94    1
   97    94    95    1
   98    66    96    1
   99    92    96    1
  100    96    97    1
  101    96    98    1
  102    98    99    1
  103    85   100    1
  104    98   100    1
  105    98   101    1
  106   101   102    1
  107   101   103    1
  108   101   104    1
  109   104   105    1
  110   106   107    1
  111    12   108    1
  112   106   108    1
  113   106   109    1
  114   109   110    1
  115   109   111    1
  116   111   112    1
  117   109   113    1
  118   113   114    1
  119   113   115    1
  120   115   116    1
  121    87   117    1
  122   113   117    1
  123   117   118    1
  124   117   119    1
  125   119   120    1
  126   106   121    1
  127   119   121    1
  128   119   122    1
  129   122   123    1
  130   122   124    1
  131   122   125    1
  132   125   126    1
  133   127   128    1
  134   127   129    1
  135   127   130    1
  136   127   131    1
  137   131   132    1
  138   131   133    1
  139   131   134    1
  140   134   135    1
  141   134   136    1
  142   134   137    1
  143   137   138    1
  144   137   139    1
  145   137   140    1
  146   140   141    1
  147   140   142    1
  148   140   143    1
  149   143   144    1
  150   143   145    1
  151   145   146    1
  152   145   147    1
  153   145   148    1
  154   143   149    1
  155   149   150    1
  156   149   151    1
  157   149   152    1
@<TRIPOS>SUBSTRUCTURE
       1 MOL1            1 RESIDUE      1      MOL     
       2 MOL1          152 RESIDUE      1      MOL     
@<SCITEGIC>MOL_PROPERTY
VM2 Rank
SciTegic.value.IntegerValue
4

@<SCITEGIC>MOL_PROPERTY
Conf_Id
SciTegic.value.IntegerValue
15414

@<SCITEGIC>MOL_PROPERTY
Probability
SciTegic.value.DoubleValue
1.56

@<SCITEGIC>MOL_PROPERTY
Sum Probability
SciTegic.value.DoubleValue
7.38

@<SCITEGIC>MOL_PROPERTY
Delta G
SciTegic.value.DoubleValue
0.203

@<SCITEGIC>MOL_PROPERTY
G
SciTegic.value.DoubleValue
542.221

@<SCITEGIC>MOL_PROPERTY
E
SciTegic.value.DoubleValue
337.267

@<SCITEGIC>MOL_PROPERTY
-TS
SciTegic.value.DoubleValue
204.954

@<SCITEGIC>MOL_PROPERTY
U+W
SciTegic.value.DoubleValue
203.130

@<SCITEGIC>MOL_PROPERTY
U
SciTegic.value.DoubleValue
267.786

@<SCITEGIC>MOL_PROPERTY
W
SciTegic.value.DoubleValue
-64.644

@<SCITEGIC>MOL_PROPERTY
W(PB)
SciTegic.value.DoubleValue
-70.707

@<SCITEGIC>MOL_PROPERTY
W(SA)
SciTegic.value.DoubleValue
6.063

@<SCITEGIC>MOL_PROPERTY
Valence
SciTegic.value.DoubleValue
147.249

@<SCITEGIC>MOL_PROPERTY
Coulomb
SciTegic.value.DoubleValue
145.426

@<SCITEGIC>MOL_PROPERTY
VdW
SciTegic.value.DoubleValue
-24.888

@<SCITEGIC>MOL_PROPERTY
VdW6
SciTegic.value.DoubleValue
-181.620

@<SCITEGIC>MOL_PROPERTY
VdW12
SciTegic.value.DoubleValue
156.732

@<SCITEGIC>MOL_PROPERTY
Bond
SciTegic.value.DoubleValue
4.399

@<SCITEGIC>MOL_PROPERTY
Angle
SciTegic.value.DoubleValue
10.626

@<SCITEGIC>MOL_PROPERTY
Pdih
SciTegic.value.DoubleValue
132.224

@<SCITEGIC>MOL_PROPERTY
Idih
SciTegic.value.DoubleValue
0.000

@<SCITEGIC>MOL_PROPERTY
Tether
SciTegic.value.DoubleValue
0.000

@<TRIPOS>MOLECULE
CD_guest-s13_vm2_rndm.mol2 : vm2 host+ligand conformer 5
         152         157           2
SMALL
USER_CHARGES
 
@<TRIPOS>ATOM
       1    C1      16.217710   15.199248   21.955955 C.3        1 MOL1         0.2972
       2    H1      15.176359   15.011405   22.248055 H          1 MOL1         0.0751
       3    O1      16.403663   16.536779   21.457296 O.3        1 MOL1        -0.3740
       4    C2      17.162354   15.000946   23.166603 C.3        1 MOL1         0.1003
       5    H2      17.081520   13.952068   23.480386 H          1 MOL1         0.0783
       6    O2      16.788656   15.853086   24.261855 O.3        1 MOL1        -0.5519
       7    H3      16.067985   16.447382   23.938101 H          1 MOL1         0.3769
       8    C3      18.628393   15.270021   22.755664 C.3        1 MOL1         0.1053
       9    H4      18.715281   16.338729   22.524064 H          1 MOL1         0.0783
      10    O3      19.492802   14.940063   23.847304 O.3        1 MOL1        -0.5519
      11    H5      19.072381   15.358062   24.632093 H          1 MOL1         0.3769
      12    C4      19.029943   14.463339   21.493404 C.3        1 MOL1         0.1018
      13    H6      19.198063   13.418337   21.785324 H          1 MOL1         0.0783
      14    C5      17.955911   14.527819   20.369270 C.3        1 MOL1         0.1043
      15    H7      17.989497   15.529846   19.921168 H          1 MOL1         0.0783
      16    O4      16.636465   14.283773   20.921681 O.3        1 MOL1        -0.3740
      17    C6      18.186019   13.507518   19.232292 C.3        1 MOL1         0.0138
      18    H8      19.119524   13.756814   18.710800 H          1 MOL1         0.0794
      19    H9      17.370936   13.602646   18.502351 H          1 MOL1         0.0794
      20    O5      18.245252   12.171169   19.738879 O.3        1 MOL1        -0.5486
      21    H10     17.394932   12.015145   20.206921 H          1 MOL1         0.3769
      22    C7      14.601204   20.132042   20.745139 C.3        1 MOL1         0.2972
      23    H11     13.972435   20.988601   20.471732 H          1 MOL1         0.0751
      24    O6      15.974624   20.528444   20.966029 O.3        1 MOL1        -0.3740
      25    C8      14.041115   19.400836   21.993661 C.3        1 MOL1         0.1003
      26    H12     13.066432   18.982238   21.710610 H          1 MOL1         0.0783
      27    O7      13.850293   20.290147   23.102211 O.3        1 MOL1        -0.5519
      28    H13     14.746059   20.621124   23.363585 H          1 MOL1         0.3769
      29    C9      14.968627   18.223074   22.375602 C.3        1 MOL1         0.1053
      30    H14     15.935938   18.640559   22.688816 H          1 MOL1         0.0783
      31    O8      14.393497   17.482148   23.456084 O.3        1 MOL1        -0.5519
      32    H15     14.035703   18.160978   24.071849 H          1 MOL1         0.3769
      33    C10     15.214766   17.287199   21.162243 C.3        1 MOL1         0.1018
      34    H16     14.343040   16.636860   21.009056 H          1 MOL1         0.0783
      35    C11     15.511826   18.048850   19.843138 C.3        1 MOL1         0.1043
      36    H17     16.542793   18.413951   19.885654 H          1 MOL1         0.0783
      37    O9      14.595229   19.160170   19.679696 O.3        1 MOL1        -0.3740
      38    C12     15.377285   17.137362   18.606091 C.3        1 MOL1         0.0138
      39    H18     14.331932   16.817066   18.502733 H          1 MOL1         0.0794
      40    H19     15.989251   16.237448   18.750681 H          1 MOL1         0.0794
      41    O10     15.806857   17.835032   17.435976 O.3        1 MOL1        -0.5486
      42    H20     15.281538   18.664403   17.407258 H          1 MOL1         0.3769
      43    C13     18.446161   23.763896   21.848454 C.3        1 MOL1         0.2972
      44    H21     18.836492   24.751839   22.124169 H          1 MOL1         0.0751
      45    O11     19.484369   22.915309   21.317469 O.3        1 MOL1        -0.3740
      46    C14     17.797494   23.078713   23.080991 C.3        1 MOL1         0.1003
      47    H22     17.003075   23.747942   23.436300 H          1 MOL1         0.0783
      48    O12     18.744811   22.872300   24.140960 O.3        1 MOL1        -0.5519
      49    H23     19.487711   23.505813   23.993359 H          1 MOL1         0.3769
      50    C15     17.150748   21.728257   22.698054 C.3        1 MOL1         0.1053
      51    H24     17.957745   21.034159   22.441507 H          1 MOL1         0.0783
      52    O13     16.438597   21.229203   23.831967 O.3        1 MOL1        -0.5519
      53    H25     17.060299   21.355039   24.584604 H          1 MOL1         0.3769
      54    C16     16.215248   21.859644   21.466931 C.3        1 MOL1         0.1018
      55    H26     15.286164   22.360507   21.770515 H          1 MOL1         0.0783
      56    C17     16.890295   22.655372   20.316502 C.3        1 MOL1         0.1043
      57    H27     17.695821   22.042455   19.892465 H          1 MOL1         0.0783
      58    O14     17.424698   23.898241   20.837423 O.3        1 MOL1        -0.3740
      59    C18     15.911642   23.008493   19.178126 C.3        1 MOL1         0.0138
      60    H28     15.120907   23.664032   19.566912 H          1 MOL1         0.0794
      61    H29     15.437507   22.090140   18.807517 H          1 MOL1         0.0794
      62    O15     16.618993   23.647933   18.114169 O.3        1 MOL1        -0.5486
      63    H30     17.109477   24.394894   18.523864 H          1 MOL1         0.3769
      64    C19     23.632361   22.783478   21.163683 C.3        1 MOL1         0.2972
      65    H31     24.701600   22.967538   20.996457 H          1 MOL1         0.0751
      66    O16     23.375042   21.421474   21.546063 O.3        1 MOL1        -0.3740
      67    C20     23.075075   23.702297   22.277546 C.3        1 MOL1         0.1003
      68    H32     23.222408   24.739226   21.948551 H          1 MOL1         0.0783
      69    O17     23.772626   23.497290   23.517203 O.3        1 MOL1        -0.5519
      70    H33     23.762656   22.524991   23.706884 H          1 MOL1         0.3769
      71    C21     21.555657   23.473409   22.474162 C.3        1 MOL1         0.1053
      72    H34     21.417900   22.472530   22.906583 H          1 MOL1         0.0783
      73    O18     21.065778   24.466630   23.382066 O.3        1 MOL1        -0.5519
      74    H35     21.763025   24.543006   24.073017 H          1 MOL1         0.3769
      75    C22     20.779013   23.523564   21.125658 C.3        1 MOL1         0.1018
      76    H36     20.683988   24.565298   20.791425 H          1 MOL1         0.0783
      77    C23     21.480159   22.706840   20.005969 C.3        1 MOL1         0.1043
      78    H37     21.356470   21.636237   20.215906 H          1 MOL1         0.0783
      79    O19     22.885343   23.054870   19.961354 O.3        1 MOL1        -0.3740
      80    C24     20.893976   22.994488   18.607759 C.3        1 MOL1         0.0138
      81    H38     21.094932   24.040116   18.338979 H          1 MOL1         0.0794
      82    H39     19.804234   22.864305   18.634216 H          1 MOL1         0.0794
      83    O20     21.477515   22.108474   17.647157 O.3        1 MOL1        -0.5486
      84    H40     22.447879   22.249758   17.716871 H          1 MOL1         0.3769
      85    C25     25.010530   17.736935   22.036733 C.3        1 MOL1         0.2972
      86    H41     25.601244   16.825250   22.194500 H          1 MOL1         0.0751
      87    O21     23.690138   17.439978   21.535857 O.3        1 MOL1        -0.3740
      88    C26     24.880513   18.526208   23.363224 C.3        1 MOL1         0.1003
      89    H42     25.892024   18.825708   23.666985 H          1 MOL1         0.0783
      90    O22     24.295816   17.716852   24.396147 O.3        1 MOL1        -0.5519
      91    H43     24.098532   16.833902   23.997215 H          1 MOL1         0.3769
      92    C27     24.041424   19.806360   23.153257 C.3        1 MOL1         0.1053
      93    H44     23.007451   19.492127   22.976605 H          1 MOL1         0.0783
      94    O23     24.089882   20.617387   24.331317 O.3        1 MOL1        -0.5519
      95    H45     23.929310   19.991857   25.072888 H          1 MOL1         0.3769
      96    C28     24.514023   20.633378   21.930505 C.3        1 MOL1         0.1018
      97    H46     25.363042   21.257560   22.239850 H          1 MOL1         0.0783
      98    C29     24.898625   19.773737   20.690808 C.3        1 MOL1         0.1043
      99    H47     23.969025   19.455337   20.201864 H          1 MOL1         0.0783
     100    O24     25.660369   18.606073   21.087753 O.3        1 MOL1        -0.3740
     101    C30     25.729366   20.542077   19.639038 C.3        1 MOL1         0.0138
     102    H48     25.120172   21.355445   19.223652 H          1 MOL1         0.0794
     103    H49     25.968310   19.860489   18.811666 H          1 MOL1         0.0794
     104    O25     26.930287   21.067336   20.211617 O.3        1 MOL1        -0.5486
     105    H50     27.419477   20.298506   20.580680 H          1 MOL1         0.3769
     106    C31     21.286348   14.192616   20.560624 C.3        1 MOL1         0.2972
     107    H51     20.886371   13.244083   20.179874 H          1 MOL1         0.0751
     108    O26     20.227631   15.078842   20.978270 O.3        1 MOL1        -0.3740
     109    C32     22.268766   13.949255   21.740217 C.3        1 MOL1         0.1003
     110    H52     23.088013   13.330699   21.351176 H          1 MOL1         0.0783
     111    O27     21.644483   13.255250   22.830916 O.3        1 MOL1        -0.5519
     112    H53     20.922292   13.841778   23.171417 H          1 MOL1         0.3769
     113    C33     22.876694   15.283356   22.234925 C.3        1 MOL1         0.1053
     114    H54     22.069227   15.877957   22.684870 H          1 MOL1         0.0783
     115    O28     23.880792   15.009198   23.217678 O.3        1 MOL1        -0.5519
     116    H55     23.502348   14.293119   23.776658 H          1 MOL1         0.3769
     117    C34     23.479098   16.098153   21.060093 C.3        1 MOL1         0.1018
     118    H56     24.415847   15.634502   20.722717 H          1 MOL1         0.0783
     119    C35     22.508350   16.192746   19.853889 C.3        1 MOL1         0.1043
     120    H57     21.672627   16.844639   20.127936 H          1 MOL1         0.0783
     121    O29     22.025699   14.867623   19.520110 O.3        1 MOL1        -0.3740
     122    C36     23.178832   16.782366   18.595088 C.3        1 MOL1         0.0138
     123    H58     23.914414   16.066128   18.205228 H          1 MOL1         0.0794
     124    H59     23.719214   17.697755   18.864887 H          1 MOL1         0.0794
     125    O30     22.188245   17.079034   17.607194 O.3        1 MOL1        -0.5486
     126    H60     21.720678   16.231976   17.433448 H          1 MOL1         0.3769
     127    C1      20.076121   19.196705   23.289480 C.3        1 MOL1        -0.2398
     128    H1      20.132601   20.290826   23.363760 H          1 MOL1         0.0972
     129    H2      19.067475   18.883939   23.590335 H          1 MOL1         0.0972
     130    H3      20.788778   18.773169   24.009120 H          1 MOL1         0.0972
     131    C2      20.401074   18.719576   21.859051 C.3        1 MOL1        -0.1383
     132    H4      20.398020   17.623968   21.832070 H          1 MOL1         0.0961
     133    H5      21.414565   19.038045   21.585651 H          1 MOL1         0.0961
     134    C3      19.403191   19.276227   20.825085 C.3        1 MOL1        -0.1407
     135    H6      18.385240   18.952060   21.077536 H          1 MOL1         0.0961
     136    H7      19.414190   20.370288   20.880320 H          1 MOL1         0.0961
     137    C4      19.758046   18.843870   19.387013 C.3        1 MOL1        -0.1407
     138    H8      19.593075   17.763620   19.270348 H          1 MOL1         0.0961
     139    H9      20.827681   19.026719   19.219494 H          1 MOL1         0.0961
     140    C5      18.932286   19.624240   18.336873 C.3        1 MOL1        -0.1472
     141    H10     17.863551   19.453079   18.505835 H          1 MOL1         0.0961
     142    H11     19.094975   20.699172   18.473446 H          1 MOL1         0.0961
     143    C6      19.274541   19.246141   16.881553 C.3        1 MOL1         0.1190
     144    H12     19.057843   18.183538   16.734511 H          1 MOL1         0.0923
     145    C7      18.403775   20.060382   15.911950 C.3        1 MOL1        -0.2463
     146    H13     18.610198   19.776940   14.872901 H          1 MOL1         0.0972
     147    H14     17.338438   19.880492   16.101419 H          1 MOL1         0.0972
     148    H15     18.593272   21.136315   16.018826 H          1 MOL1         0.0972
     149    N1      20.732450   19.444225   16.571074 N.4        1 MOL1        -0.5974
     150    H16     21.036878   20.391730   16.844551 H          1 MOL1         0.3625
     151    H17     21.318362   18.762748   17.079020 H          1 MOL1         0.3625
     152    H18     20.926564   19.324109   15.574655 H          1 MOL1         0.3625
@<TRIPOS>BOND
    1     1     2    1
    2     1     3    1
    3     1     4    1
    4     4     5    1
    5     4     6    1
    6     6     7    1
    7     4     8    1
    8     8     9    1
    9     8    10    1
   10    10    11    1
   11     8    12    1
   12    12    13    1
   13    12    14    1
   14    14    15    1
   15     1    16    1
   16    14    16    1
   17    14    17    1
   18    17    18    1
   19    17    19    1
   20    17    20    1
   21    20    21    1
   22    22    23    1
   23    22    24    1
   24    22    25    1
   25    25    26    1
   26    25    27    1
   27    27    28    1
   28    25    29    1
   29    29    30    1
   30    29    31    1
   31    31    32    1
   32     3    33    1
   33    29    33    1
   34    33    34    1
   35    33    35    1
   36    35    36    1
   37    22    37    1
   38    35    37    1
   39    35    38    1
   40    38    39    1
   41    38    40    1
   42    38    41    1
   43    41    42    1
   44    43    44    1
   45    43    45    1
   46    43    46    1
   47    46    47    1
   48    46    48    1
   49    48    49    1
   50    46    50    1
   51    50    51    1
   52    50    52    1
   53    52    53    1
   54    24    54    1
   55    50    54    1
   56    54    55    1
   57    54    56    1
   58    56    57    1
   59    43    58    1
   60    56    58    1
   61    56    59    1
   62    59    60    1
   63    59    61    1
   64    59    62    1
   65    62    63    1
   66    64    65    1
   67    64    66    1
   68    64    67    1
   69    67    68    1
   70    67    69    1
   71    69    70    1
   72    67    71    1
   73    71    72    1
   74    71    73    1
   75    73    74    1
   76    45    75    1
   77    71    75    1
   78    75    76    1
   79    75    77    1
   80    77    78    1
   81    64    79    1
   82    77    79    1
   83    77    80    1
   84    80    81    1
   85    80    82    1
   86    80    83    1
   87    83    84    1
   88    85    86    1
   89    85    87    1
   90    85    88    1
   91    88    89    1
   92    88    90    1
   93    90    91    1
   94    88    92    1
   95    92    93    1
   96    92    94    1
   97    94    95    1
   98    66    96    1
   99    92    96    1
  100    96    97    1
  101    96    98    1
  102    98    99    1
  103    85   100    1
  104    98   100    1
  105    98   101    1
  106   101   102    1
  107   101   103    1
  108   101   104    1
  109   104   105    1
  110   106   107    1
  111    12   108    1
  112   106   108    1
  113   106   109    1
  114   109   110    1
  115   109   111    1
  116   111   112    1
  117   109   113    1
  118   113   114    1
  119   113   115    1
  120   115   116    1
  121    87   117    1
  122   113   117    1
  123   117   118    1
  124   117   119    1
  125   119   120    1
  126   106   121    1
  127   119   121    1
  128   119   122    1
  129   122   123    1
  130   122   124    1
  131   122   125    1
  132   125   126    1
  133   127   128    1
  134   127   129    1
  135   127   130    1
  136   127   131    1
  137   131   132    1
  138   131   133    1
  139   131   134    1
  140   134   135    1
  141   134   136    1
  142   134   137    1
  143   137   138    1
  144   137   139    1
  145   137   140    1
  146   140   141    1
  147   140   142    1
  148   140   143    1
  149   143   144    1
  150   143   145    1
  151   145   146    1
  152   145   147    1
  153   145   148    1
  154   143   149    1
  155   149   150    1
  156   149   151    1
  157   149   152    1
@<TRIPOS>SUBSTRUCTURE
       1 MOL1            1 RESIDUE      1      MOL     
       2 MOL1          152 RESIDUE      1      MOL     
@<SCITEGIC>MOL_PROPERTY
VM2 Rank
SciTegic.value.IntegerValue
5

@<SCITEGIC>MOL_PROPERTY
Conf_Id
SciTegic.value.IntegerValue
25658

@<SCITEGIC>MOL_PROPERTY
Probability
SciTegic.value.DoubleValue
1.50

@<SCITEGIC>MOL_PROPERTY
Sum Probability
SciTegic.value.DoubleValue
8.89

@<SCITEGIC>MOL_PROPERTY
Delta G
SciTegic.value.DoubleValue
0.224

@<SCITEGIC>MOL_PROPERTY
G
SciTegic.value.DoubleValue
542.242

@<SCITEGIC>MOL_PROPERTY
E
SciTegic.value.DoubleValue
337.350

@<SCITEGIC>MOL_PROPERTY
-TS
SciTegic.value.DoubleValue
204.891

@<SCITEGIC>MOL_PROPERTY
U+W
SciTegic.value.DoubleValue
203.214

@<SCITEGIC>MOL_PROPERTY
U
SciTegic.value.DoubleValue
266.798

@<SCITEGIC>MOL_PROPERTY
W
SciTegic.value.DoubleValue
-63.584

@<SCITEGIC>MOL_PROPERTY
W(PB)
SciTegic.value.DoubleValue
-69.554

@<SCITEGIC>MOL_PROPERTY
W(SA)
SciTegic.value.DoubleValue
5.970

@<SCITEGIC>MOL_PROPERTY
Valence
SciTegic.value.DoubleValue
147.827

@<SCITEGIC>MOL_PROPERTY
Coulomb
SciTegic.value.DoubleValue
144.770

@<SCITEGIC>MOL_PROPERTY
VdW
SciTegic.value.DoubleValue
-25.799

@<SCITEGIC>MOL_PROPERTY
VdW6
SciTegic.value.DoubleValue
-181.341

@<SCITEGIC>MOL_PROPERTY
VdW12
SciTegic.value.DoubleValue
155.542

@<SCITEGIC>MOL_PROPERTY
Bond
SciTegic.value.DoubleValue
4.340

@<SCITEGIC>MOL_PROPERTY
Angle
SciTegic.value.DoubleValue
10.529

@<SCITEGIC>MOL_PROPERTY
Pdih
SciTegic.value.DoubleValue
132.958

@<SCITEGIC>MOL_PROPERTY
Idih
SciTegic.value.DoubleValue
0.000

@<SCITEGIC>MOL_PROPERTY
Tether
SciTegic.value.DoubleValue
0.000

@<TRIPOS>MOLECULE
CD_guest-s13_vm2_rndm.mol2 : vm2 host+ligand conformer 6
         152         157           2
SMALL
USER_CHARGES
 
@<TRIPOS>ATOM
       1    C1      16.205957   15.205902   21.921238 C.3        1 MOL1         0.2972
       2    H1      15.166444   14.996254   22.204730 H          1 MOL1         0.0751
       3    O1      16.373285   16.557861   21.454696 O.3        1 MOL1        -0.3740
       4    C2      17.147314   14.988711   23.131647 C.3        1 MOL1         0.1003
       5    H2      17.070329   13.933036   23.422853 H          1 MOL1         0.0783
       6    O2      16.765720   15.813858   24.244421 O.3        1 MOL1        -0.5519
       7    H3      16.067939   16.436695   23.923547 H          1 MOL1         0.3769
       8    C3      18.614670   15.271428   22.736060 C.3        1 MOL1         0.1053
       9    H4      18.701235   16.344088   22.524751 H          1 MOL1         0.0783
      10    O3      19.469406   14.924001   23.829635 O.3        1 MOL1        -0.5519
      11    H5      19.030388   15.311286   24.620133 H          1 MOL1         0.3769
      12    C4      19.026033   14.489133   21.462012 C.3        1 MOL1         0.1018
      13    H6      19.183592   13.436743   21.732768 H          1 MOL1         0.0783
      14    C5      17.961776   14.587036   20.331343 C.3        1 MOL1         0.1043
      15    H7      17.994977   15.602812   19.915341 H          1 MOL1         0.0783
      16    O4      16.639221   14.321416   20.865857 O.3        1 MOL1        -0.3740
      17    C6      18.205189   13.603207   19.165468 C.3        1 MOL1         0.0138
      18    H8      19.144453   13.869085   18.662732 H          1 MOL1         0.0794
      19    H9      17.398114   13.720549   18.429879 H          1 MOL1         0.0794
      20    O5      18.260239   12.251847   19.630933 O.3        1 MOL1        -0.5486
      21    H10     17.405495   12.081134   20.085563 H          1 MOL1         0.3769
      22    C7      14.539504   20.140461   20.771916 C.3        1 MOL1         0.2972
      23    H11     13.907665   20.999914   20.515184 H          1 MOL1         0.0751
      24    O6      15.925599   20.525076   20.929027 O.3        1 MOL1        -0.3740
      25    C8      14.023591   19.423249   22.047408 C.3        1 MOL1         0.1003
      26    H12     13.038638   19.004182   21.803220 H          1 MOL1         0.0783
      27    O7      13.872958   20.323472   23.153120 O.3        1 MOL1        -0.5519
      28    H13     14.781870   20.631971   23.395366 H          1 MOL1         0.3769
      29    C9      14.961763   18.246444   22.407291 C.3        1 MOL1         0.1053
      30    H14     15.938833   18.663708   22.688143 H          1 MOL1         0.0783
      31    O8      14.418515   17.512275   23.508440 O.3        1 MOL1        -0.5519
      32    H15     14.088816   18.194565   24.135777 H          1 MOL1         0.3769
      33    C10     15.170683   17.301760   21.194009 C.3        1 MOL1         0.1018
      34    H16     14.296169   16.647203   21.079625 H          1 MOL1         0.0783
      35    C11     15.411276   18.052298   19.856698 C.3        1 MOL1         0.1043
      36    H17     16.438847   18.430882   19.855814 H          1 MOL1         0.0783
      37    O9      14.481951   19.156139   19.719671 O.3        1 MOL1        -0.3740
      38    C12     15.232240   17.124260   18.637354 C.3        1 MOL1         0.0138
      39    H18     14.185820   16.795655   18.581781 H          1 MOL1         0.0794
      40    H19     15.856091   16.230206   18.768169 H          1 MOL1         0.0794
      41    O10     15.607465   17.808132   17.440949 O.3        1 MOL1        -0.5486
      42    H20     15.080897   18.637361   17.425319 H          1 MOL1         0.3769
      43    C13     18.451090   23.732701   21.807407 C.3        1 MOL1         0.2972
      44    H21     18.835756   24.719768   22.092976 H          1 MOL1         0.0751
      45    O11     19.488436   22.904604   21.243195 O.3        1 MOL1        -0.3740
      46    C14     17.833370   23.015606   23.038235 C.3        1 MOL1         0.1003
      47    H22     17.042078   23.671087   23.424799 H          1 MOL1         0.0783
      48    O12     18.801604   22.790736   24.075197 O.3        1 MOL1        -0.5519
      49    H23     19.499963   23.480311   23.971521 H          1 MOL1         0.3769
      50    C15     17.187201   21.670684   22.636156 C.3        1 MOL1         0.1053
      51    H24     17.986838   20.990874   22.320242 H          1 MOL1         0.0783
      52    O13     16.523905   21.131544   23.781293 O.3        1 MOL1        -0.5519
      53    H25     17.173580   21.245007   24.512141 H          1 MOL1         0.3769
      54    C16     16.207033   21.840461   21.446634 C.3        1 MOL1         0.1018
      55    H26     15.298403   22.351512   21.792107 H          1 MOL1         0.0783
      56    C17     16.859968   22.646726   20.291173 C.3        1 MOL1         0.1043
      57    H27     17.653914   22.036574   19.840716 H          1 MOL1         0.0783
      58    O14     17.409839   23.880110   20.817978 O.3        1 MOL1        -0.3740
      59    C18     15.855642   23.020540   19.181982 C.3        1 MOL1         0.0138
      60    H28     15.076310   23.671593   19.600190 H          1 MOL1         0.0794
      61    H29     15.369997   22.109377   18.808344 H          1 MOL1         0.0794
      62    O15     16.539035   23.675928   18.112065 O.3        1 MOL1        -0.5486
      63    H30     17.049967   24.407981   18.524011 H          1 MOL1         0.3769
      64    C19     23.651246   22.798941   21.228245 C.3        1 MOL1         0.2972
      65    H31     24.722230   22.992722   21.084582 H          1 MOL1         0.0751
      66    O16     23.400264   21.450584   21.659281 O.3        1 MOL1        -0.3740
      67    C20     23.055107   23.740279   22.301089 C.3        1 MOL1         0.1003
      68    H32     23.209570   24.770786   21.955570 H          1 MOL1         0.0783
      69    O17     23.716754   23.557992   23.564231 O.3        1 MOL1        -0.5519
      70    H33     23.747940   22.584541   23.742798 H          1 MOL1         0.3769
      71    C21     21.530788   23.508962   22.460224 C.3        1 MOL1         0.1053
      72    H34     21.386472   22.521522   22.920513 H          1 MOL1         0.0783
      73    O18     21.016961   24.527672   23.325737 O.3        1 MOL1        -0.5519
      74    H35     21.699597   24.630171   24.027984 H          1 MOL1         0.3769
      75    C22     20.790954   23.510301   21.088088 C.3        1 MOL1         0.1018
      76    H36     20.707028   24.538652   20.712260 H          1 MOL1         0.0783
      77    C23     21.530654   22.651346   20.028730 C.3        1 MOL1         0.1043
      78    H37     21.420522   21.593442   20.295345 H          1 MOL1         0.0783
      79    O19     22.930201   23.018934   19.999497 O.3        1 MOL1        -0.3740
      80    C24     20.968069   22.840445   18.605883 C.3        1 MOL1         0.0138
      81    H38     21.149181   23.871998   18.275654 H          1 MOL1         0.0794
      82    H39     19.881935   22.681192   18.621043 H          1 MOL1         0.0794
      83    O20     21.591517   21.908465   17.718000 O.3        1 MOL1        -0.5486
      84    H40     22.554589   22.097119   17.772026 H          1 MOL1         0.3769
      85    C25     25.041933   17.749669   22.032860 C.3        1 MOL1         0.2972
      86    H41     25.640672   16.838200   22.158516 H          1 MOL1         0.0751
      87    O21     23.697688   17.452096   21.599338 O.3        1 MOL1        -0.3740
      88    C26     24.980641   18.532381   23.367853 C.3        1 MOL1         0.1003
      89    H42     26.005800   18.832525   23.620972 H          1 MOL1         0.0783
      90    O22     24.451966   17.715102   24.424227 O.3        1 MOL1        -0.5519
      91    H43     24.140483   16.871972   24.011356 H          1 MOL1         0.3769
      92    C27     24.131203   19.812128   23.206247 C.3        1 MOL1         0.1053
      93    H44     23.090468   19.496205   23.075699 H          1 MOL1         0.0783
      94    O23     24.233415   20.619105   24.384036 O.3        1 MOL1        -0.5519
      95    H45     24.108629   19.991580   25.130606 H          1 MOL1         0.3769
      96    C28     24.549513   20.646084   21.968821 C.3        1 MOL1         0.1018
      97    H46     25.419837   21.257985   22.241085 H          1 MOL1         0.0783
      98    C29     24.861453   19.793180   20.704126 C.3        1 MOL1         0.1043
      99    H47     23.905033   19.480637   20.265662 H          1 MOL1         0.0783
     100    O24     25.640563   18.621625   21.053514 O.3        1 MOL1        -0.3740
     101    C30     25.638982   20.561812   19.612435 C.3        1 MOL1         0.0138
     102    H48     25.012420   21.377472   19.229391 H          1 MOL1         0.0794
     103    H49     25.833381   19.881147   18.772718 H          1 MOL1         0.0794
     104    O25     26.869218   21.082481   20.123657 O.3        1 MOL1        -0.5486
     105    H50     27.374924   20.311362   20.464506 H          1 MOL1         0.3769
     106    C31     21.294935   14.220418   20.559701 C.3        1 MOL1         0.2972
     107    H51     20.898029   13.275515   20.166784 H          1 MOL1         0.0751
     108    O26     20.233041   15.105547   20.969951 O.3        1 MOL1        -0.3740
     109    C32     22.260982   13.967697   21.750212 C.3        1 MOL1         0.1003
     110    H52     23.089185   13.357748   21.366609 H          1 MOL1         0.0783
     111    O27     21.624910   13.258172   22.823758 O.3        1 MOL1        -0.5519
     112    H53     20.896592   13.838384   23.161762 H          1 MOL1         0.3769
     113    C33     22.853089   15.301179   22.264520 C.3        1 MOL1         0.1053
     114    H54     22.034706   15.893315   22.697197 H          1 MOL1         0.0783
     115    O28     23.837660   15.028813   23.267156 O.3        1 MOL1        -0.5519
     116    H55     23.448320   14.314466   23.820531 H          1 MOL1         0.3769
     117    C34     23.480180   16.117729   21.105541 C.3        1 MOL1         0.1018
     118    H56     24.418181   15.644585   20.785137 H          1 MOL1         0.0783
     119    C35     22.537076   16.222947   19.877795 C.3        1 MOL1         0.1043
     120    H57     21.703101   16.889171   20.127208 H          1 MOL1         0.0783
     121    O29     22.050081   14.900634   19.533994 O.3        1 MOL1        -0.3740
     122    C36     23.256672   16.789555   18.634947 C.3        1 MOL1         0.0138
     123    H58     24.055580   16.099130   18.333168 H          1 MOL1         0.0794
     124    H59     23.726027   17.747045   18.890504 H          1 MOL1         0.0794
     125    O30     22.324805   16.974122   17.566798 O.3        1 MOL1        -0.5486
     126    H60     21.902557   16.096722   17.430817 H          1 MOL1         0.3769
     127    C1      20.140027   18.784979   23.378624 C.3        1 MOL1        -0.2398
     128    H1      19.083666   18.849685   23.671282 H          1 MOL1         0.0972
     129    H2      20.442198   17.730322   23.405473 H          1 MOL1         0.0972
     130    H3      20.731581   19.322078   24.131316 H          1 MOL1         0.0972
     131    C2      20.366958   19.390188   21.978640 C.3        1 MOL1        -0.1383
     132    H4      21.423966   19.287478   21.703139 H          1 MOL1         0.0961
     133    H5      20.154142   20.465444   22.009224 H          1 MOL1         0.0961
     134    C3      19.498367   18.707604   20.902191 C.3        1 MOL1        -0.1407
     135    H6      19.718225   17.634786   20.895936 H          1 MOL1         0.0961
     136    H7      18.433830   18.809103   21.154165 H          1 MOL1         0.0961
     137    C4      19.765927   19.297828   19.500791 C.3        1 MOL1        -0.1407
     138    H8      20.849043   19.404847   19.353345 H          1 MOL1         0.0961
     139    H9      19.335512   20.305772   19.451300 H          1 MOL1         0.0961
     140    C5      19.191155   18.400607   18.376348 C.3        1 MOL1        -0.1472
     141    H10     19.687180   17.422129   18.415079 H          1 MOL1         0.0961
     142    H11     18.130730   18.202777   18.557846 H          1 MOL1         0.0961
     143    C6      19.347660   18.973604   16.950190 C.3        1 MOL1         0.1190
     144    H12     19.045726   18.187232   16.251722 H          1 MOL1         0.0923
     145    C7      18.430163   20.186699   16.716116 C.3        1 MOL1        -0.2463
     146    H13     18.719377   21.041946   17.336955 H          1 MOL1         0.0972
     147    H14     18.474565   20.504878   15.667697 H          1 MOL1         0.0972
     148    H15     17.386927   19.937397   16.944625 H          1 MOL1         0.0972
     149    N1      20.775797   19.305860   16.620032 N.4        1 MOL1        -0.5974
     150    H16     21.080828   20.152438   17.124898 H          1 MOL1         0.3625
     151    H17     21.410233   18.534865   16.883500 H          1 MOL1         0.3625
     152    H18     20.900953   19.490421   15.622329 H          1 MOL1         0.3625
@<TRIPOS>BOND
    1     1     2    1
    2     1     3    1
    3     1     4    1
    4     4     5    1
    5     4     6    1
    6     6     7    1
    7     4     8    1
    8     8     9    1
    9     8    10    1
   10    10    11    1
   11     8    12    1
   12    12    13    1
   13    12    14    1
   14    14    15    1
   15     1    16    1
   16    14    16    1
   17    14    17    1
   18    17    18    1
   19    17    19    1
   20    17    20    1
   21    20    21    1
   22    22    23    1
   23    22    24    1
   24    22    25    1
   25    25    26    1
   26    25    27    1
   27    27    28    1
   28    25    29    1
   29    29    30    1
   30    29    31    1
   31    31    32    1
   32     3    33    1
   33    29    33    1
   34    33    34    1
   35    33    35    1
   36    35    36    1
   37    22    37    1
   38    35    37    1
   39    35    38    1
   40    38    39    1
   41    38    40    1
   42    38    41    1
   43    41    42    1
   44    43    44    1
   45    43    45    1
   46    43    46    1
   47    46    47    1
   48    46    48    1
   49    48    49    1
   50    46    50    1
   51    50    51    1
   52    50    52    1
   53    52    53    1
   54    24    54    1
   55    50    54    1
   56    54    55    1
   57    54    56    1
   58    56    57    1
   59    43    58    1
   60    56    58    1
   61    56    59    1
   62    59    60    1
   63    59    61    1
   64    59    62    1
   65    62    63    1
   66    64    65    1
   67    64    66    1
   68    64    67    1
   69    67    68    1
   70    67    69    1
   71    69    70    1
   72    67    71    1
   73    71    72    1
   74    71    73    1
   75    73    74    1
   76    45    75    1
   77    71    75    1
   78    75    76    1
   79    75    77    1
   80    77    78    1
   81    64    79    1
   82    77    79    1
   83    77    80    1
   84    80    81    1
   85    80    82    1
   86    80    83    1
   87    83    84    1
   88    85    86    1
   89    85    87    1
   90    85    88    1
   91    88    89    1
   92    88    90    1
   93    90    91    1
   94    88    92    1
   95    92    93    1
   96    92    94    1
   97    94    95    1
   98    66    96    1
   99    92    96    1
  100    96    97    1
  101    96    98    1
  102    98    99    1
  103    85   100    1
  104    98   100    1
  105    98   101    1
  106   101   102    1
  107   101   103    1
  108   101   104    1
  109   104   105    1
  110   106   107    1
  111    12   108    1
  112   106   108    1
  113   106   109    1
  114   109   110    1
  115   109   111    1
  116   111   112    1
  117   109   113    1
  118   113   114    1
  119   113   115    1
  120   115   116    1
  121    87   117    1
  122   113   117    1
  123   117   118    1
  124   117   119    1
  125   119   120    1
  126   106   121    1
  127   119   121    1
  128   119   122    1
  129   122   123    1
  130   122   124    1
  131   122   125    1
  132   125   126    1
  133   127   128    1
  134   127   129    1
  135   127   130    1
  136   127   131    1
  137   131   132    1
  138   131   133    1
  139   131   134    1
  140   134   135    1
  141   134   136    1
  142   134   137    1
  143   137   138    1
  144   137   139    1
  145   137   140    1
  146   140   141    1
  147   140   142    1
  148   140   143    1
  149   143   144    1
  150   143   145    1
  151   145   146    1
  152   145   147    1
  153   145   148    1
  154   143   149    1
  155   149   150    1
  156   149   151    1
  157   149   152    1
@<TRIPOS>SUBSTRUCTURE
       1 MOL1            1 RESIDUE      1      MOL     
       2 MOL1          152 RESIDUE      1      MOL     
@<SCITEGIC>MOL_PROPERTY
VM2 Rank
SciTegic.value.IntegerValue
6

@<SCITEGIC>MOL_PROPERTY
Conf_Id
SciTegic.value.IntegerValue
23152

@<SCITEGIC>MOL_PROPERTY
Probability
SciTegic.value.DoubleValue
1.41

@<SCITEGIC>MOL_PROPERTY
Sum Probability
SciTegic.value.DoubleValue
10.30

@<SCITEGIC>MOL_PROPERTY
Delta G
SciTegic.value.DoubleValue
0.262

@<SCITEGIC>MOL_PROPERTY
G
SciTegic.value.DoubleValue
542.280

@<SCITEGIC>MOL_PROPERTY
E
SciTegic.value.DoubleValue
337.332

@<SCITEGIC>MOL_PROPERTY
-TS
SciTegic.value.DoubleValue
204.947

@<SCITEGIC>MOL_PROPERTY
U+W
SciTegic.value.DoubleValue
203.196

@<SCITEGIC>MOL_PROPERTY
U
SciTegic.value.DoubleValue
267.245

@<SCITEGIC>MOL_PROPERTY
W
SciTegic.value.DoubleValue
-64.049

@<SCITEGIC>MOL_PROPERTY
W(PB)
SciTegic.value.DoubleValue
-69.984

@<SCITEGIC>MOL_PROPERTY
W(SA)
SciTegic.value.DoubleValue
5.935

@<SCITEGIC>MOL_PROPERTY
Valence
SciTegic.value.DoubleValue
148.769

@<SCITEGIC>MOL_PROPERTY
Coulomb
SciTegic.value.DoubleValue
144.710

@<SCITEGIC>MOL_PROPERTY
VdW
SciTegic.value.DoubleValue
-26.234

@<SCITEGIC>MOL_PROPERTY
VdW6
SciTegic.value.DoubleValue
-182.875

@<SCITEGIC>MOL_PROPERTY
VdW12
SciTegic.value.DoubleValue
156.642

@<SCITEGIC>MOL_PROPERTY
Bond
SciTegic.value.DoubleValue
4.353

@<SCITEGIC>MOL_PROPERTY
Angle
SciTegic.value.DoubleValue
10.864

@<SCITEGIC>MOL_PROPERTY
Pdih
SciTegic.value.DoubleValue
133.551

@<SCITEGIC>MOL_PROPERTY
Idih
SciTegic.value.DoubleValue
0.000

@<SCITEGIC>MOL_PROPERTY
Tether
SciTegic.value.DoubleValue
0.000

@<TRIPOS>MOLECULE
CD_guest-s13_vm2_rndm.mol2 : vm2 host+ligand conformer 7
         152         157           2
SMALL
USER_CHARGES
 
@<TRIPOS>ATOM
       1    C1      16.364395   15.261206   22.030605 C.3        1 MOL1         0.2972
       2    H1      15.281794   15.203064   22.202646 H          1 MOL1         0.0751
       3    O1      16.758314   16.566650   21.555726 O.3        1 MOL1        -0.3740
       4    C2      17.125463   14.946792   23.342658 C.3        1 MOL1         0.1003
       5    H2      16.861072   13.922557   23.636219 H          1 MOL1         0.0783
       6    O2      16.748117   15.852703   24.391947 O.3        1 MOL1        -0.5519
       7    H3      16.055581   16.453307   24.021061 H          1 MOL1         0.3769
       8    C3      18.652527   15.004231   23.116730 C.3        1 MOL1         0.1053
       9    H4      18.916659   16.052420   22.945604 H          1 MOL1         0.0783
      10    O3      19.330851   14.532642   24.284884 O.3        1 MOL1        -0.5519
      11    H5      18.879397   14.981683   25.034473 H          1 MOL1         0.3769
      12    C4      19.099586   14.182371   21.881378 C.3        1 MOL1         0.1018
      13    H6      19.166249   13.125097   22.170945 H          1 MOL1         0.0783
      14    C5      18.163737   14.347496   20.649754 C.3        1 MOL1         0.1043
      15    H7      18.372491   15.325752   20.198940 H          1 MOL1         0.0783
      16    O4      16.772455   14.285543   21.050386 O.3        1 MOL1        -0.3740
      17    C6      18.387077   13.278675   19.556837 C.3        1 MOL1         0.0138
      18    H8      19.398075   13.392278   19.144172 H          1 MOL1         0.0794
      19    H9      17.679222   13.459013   18.736712 H          1 MOL1         0.0794
      20    O5      18.213518   11.959198   20.081113 O.3        1 MOL1        -0.5486
      21    H10     17.303013   11.926434   20.450563 H          1 MOL1         0.3769
      22    C7      14.940861   20.210004   20.592659 C.3        1 MOL1         0.2972
      23    H11     14.247711   20.970239   20.210141 H          1 MOL1         0.0751
      24    O6      16.175108   20.791513   21.053531 O.3        1 MOL1        -0.3740
      25    C8      14.307399   19.446712   21.783356 C.3        1 MOL1         0.1003
      26    H12     13.377465   18.988919   21.421802 H          1 MOL1         0.0783
      27    O7      14.001427   20.343585   22.863551 O.3        1 MOL1        -0.5519
      28    H13     14.758684   20.976835   22.947145 H          1 MOL1         0.3769
      29    C9      15.239163   18.309754   22.271864 C.3        1 MOL1         0.1053
      30    H14     16.136990   18.767397   22.710227 H          1 MOL1         0.0783
      31    O8      14.555053   17.537943   23.264609 O.3        1 MOL1        -0.5519
      32    H15     14.104501   18.202274   23.834153 H          1 MOL1         0.3769
      33    C10     15.685907   17.408136   21.090064 C.3        1 MOL1         0.1018
      34    H16     14.833876   16.812947   20.734783 H          1 MOL1         0.0783
      35    C11     16.228618   18.245268   19.902548 C.3        1 MOL1         0.1043
      36    H17     17.178099   18.711141   20.194865 H          1 MOL1         0.0783
      37    O9      15.248794   19.253646   19.558214 O.3        1 MOL1        -0.3740
      38    C12     16.465849   17.393708   18.637939 C.3        1 MOL1         0.0138
      39    H18     15.513703   16.954226   18.311984 H          1 MOL1         0.0794
      40    H19     17.148174   16.569369   18.875814 H          1 MOL1         0.0794
      41    O10     17.024942   18.203367   17.601391 O.3        1 MOL1        -0.5486
      42    H20     16.396350   18.945562   17.472011 H          1 MOL1         0.3769
      43    C13     18.437682   24.226254   20.947647 C.3        1 MOL1         0.2972
      44    H21     18.868163   25.230472   20.841599 H          1 MOL1         0.0751
      45    O11     19.464280   23.225965   21.128919 O.3        1 MOL1        -0.3740
      46    C14     17.420040   24.167881   22.118485 C.3        1 MOL1         0.1003
      47    H22     16.581047   24.822078   21.847503 H          1 MOL1         0.0783
      48    O12     17.980941   24.635998   23.352745 O.3        1 MOL1        -0.5519
      49    H23     18.693625   23.996812   23.604469 H          1 MOL1         0.3769
      50    C15     16.869310   22.729253   22.266246 C.3        1 MOL1         0.1053
      51    H24     17.697757   22.068330   22.556471 H          1 MOL1         0.0783
      52    O13     15.852261   22.700403   23.273186 O.3        1 MOL1        -0.5519
      53    H25     16.216300   23.221746   24.022899 H          1 MOL1         0.3769
      54    C16     16.285067   22.221341   20.924634 C.3        1 MOL1         0.1018
      55    H26     15.306617   22.698009   20.779052 H          1 MOL1         0.0783
      56    C17     17.202296   22.517281   19.702160 C.3        1 MOL1         0.1043
      57    H27     18.047488   21.820532   19.733578 H          1 MOL1         0.0783
      58    O14     17.701196   23.877781   19.756665 O.3        1 MOL1        -0.3740
      59    C18     16.496042   22.334044   18.340589 C.3        1 MOL1         0.0138
      60    H28     16.210155   21.281615   18.221564 H          1 MOL1         0.0794
      61    H29     17.208372   22.570270   17.538826 H          1 MOL1         0.0794
      62    O15     15.341829   23.172865   18.241032 O.3        1 MOL1        -0.5486
      63    H30     15.657626   24.093829   18.376529 H          1 MOL1         0.3769
      64    C19     23.367833   22.557919   22.322219 C.3        1 MOL1         0.2972
      65    H31     24.390988   22.630782   22.712039 H          1 MOL1         0.0751
      66    O16     23.170890   21.341592   21.570204 O.3        1 MOL1        -0.3740
      67    C20     22.342524   22.611186   23.484607 C.3        1 MOL1         0.1003
      68    H32     22.486190   23.571417   23.997024 H          1 MOL1         0.0783
      69    O17     22.537945   21.542837   24.424997 O.3        1 MOL1        -0.5519
      70    H33     23.464222   21.220682   24.309269 H          1 MOL1         0.3769
      71    C21     20.896796   22.564826   22.944204 C.3        1 MOL1         0.1053
      72    H34     20.737777   21.577749   22.499538 H          1 MOL1         0.0783
      73    O18     19.996447   22.744778   24.039555 O.3        1 MOL1        -0.5519
      74    H35     20.357120   22.164350   24.747953 H          1 MOL1         0.3769
      75    C22     20.653611   23.624420   21.839532 C.3        1 MOL1         0.1018
      76    H36     20.544483   24.611373   22.308465 H          1 MOL1         0.0783
      77    C23     21.801194   23.656647   20.790753 C.3        1 MOL1         0.1043
      78    H37     21.723438   22.755637   20.167813 H          1 MOL1         0.0783
      79    O19     23.090897   23.675883   21.451708 O.3        1 MOL1        -0.3740
      80    C24     21.731595   24.880686   19.850842 C.3        1 MOL1         0.0138
      81    H38     20.807021   24.826068   19.260735 H          1 MOL1         0.0794
      82    H39     22.572608   24.833882   19.146112 H          1 MOL1         0.0794
      83    O20     21.771293   26.104028   20.591241 O.3        1 MOL1        -0.5486
      84    H40     22.602085   26.081522   21.116497 H          1 MOL1         0.3769
      85    C25     25.096101   17.681442   21.076790 C.3        1 MOL1         0.2972
      86    H41     25.809324   16.875776   20.862157 H          1 MOL1         0.0751
      87    O21     23.765140   17.177463   21.314457 O.3        1 MOL1        -0.3740
      88    C26     25.546523   18.474197   22.327030 C.3        1 MOL1         0.1003
      89    H42     26.526831   18.911986   22.097501 H          1 MOL1         0.0783
      90    O22     25.678194   17.617308   23.471678 O.3        1 MOL1        -0.5519
      91    H43     25.003770   16.897325   23.382969 H          1 MOL1         0.3769
      92    C27     24.570615   19.636872   22.626990 C.3        1 MOL1         0.1053
      93    H44     23.605703   19.206445   22.929531 H          1 MOL1         0.0783
      94    O23     25.119301   20.410734   23.699546 O.3        1 MOL1        -0.5519
      95    H45     25.490079   19.743207   24.321851 H          1 MOL1         0.3769
      96    C28     24.337340   20.516766   21.364899 C.3        1 MOL1         0.1018
      97    H46     25.227170   21.132353   21.177057 H          1 MOL1         0.0783
      98    C29     24.050136   19.665077   20.098273 C.3        1 MOL1         0.1043
      99    H47     23.047155   19.229904   20.183890 H          1 MOL1         0.0783
     100    O24     25.042594   18.614879   19.978108 O.3        1 MOL1        -0.3740
     101    C30     24.104951   20.513606   18.809980 C.3        1 MOL1         0.0138
     102    H48     25.098759   20.972151   18.720206 H          1 MOL1         0.0794
     103    H49     23.369011   21.325301   18.880773 H          1 MOL1         0.0794
     104    O25     23.828780   19.697932   17.669728 O.3        1 MOL1        -0.5486
     105    H50     24.495237   18.975693   17.697654 H          1 MOL1         0.3769
     106    C31     21.394183   13.774290   21.125544 C.3        1 MOL1         0.2972
     107    H51     20.978713   12.771786   20.959572 H          1 MOL1         0.0751
     108    O26     20.377507   14.721476   21.501342 O.3        1 MOL1        -0.3740
     109    C32     22.464752   13.758341   22.245765 C.3        1 MOL1         0.1003
     110    H52     23.266303   13.081053   21.923494 H          1 MOL1         0.0783
     111    O27     21.914858   13.281495   23.484628 O.3        1 MOL1        -0.5519
     112    H53     21.094645   13.806042   23.668244 H          1 MOL1         0.3769
     113    C33     23.075977   15.169063   22.434915 C.3        1 MOL1         0.1053
     114    H54     22.296531   15.826547   22.844482 H          1 MOL1         0.0783
     115    O28     24.170296   15.089259   23.352096 O.3        1 MOL1        -0.5519
     116    H55     23.846772   14.522708   24.088184 H          1 MOL1         0.3769
     117    C34     23.555816   15.769515   21.087616 C.3        1 MOL1         0.1018
     118    H56     24.474944   15.256984   20.774325 H          1 MOL1         0.0783
     119    C35     22.489580   15.629547   19.968728 C.3        1 MOL1         0.1043
     120    H57     21.653721   16.302448   20.189504 H          1 MOL1         0.0783
     121    O29     22.026301   14.258102   19.921444 O.3        1 MOL1        -0.3740
     122    C36     23.032663   15.991687   18.571880 C.3        1 MOL1         0.0138
     123    H58     23.804492   15.267070   18.280043 H          1 MOL1         0.0794
     124    H59     23.500687   16.982985   18.610969 H          1 MOL1         0.0794
     125    O30     21.961262   15.999939   17.625649 O.3        1 MOL1        -0.5486
     126    H60     21.544985   15.111298   17.682370 H          1 MOL1         0.3769
     127    C1      19.812994   18.918633   23.144882 C.3        1 MOL1        -0.2398
     128    H1      19.711932   18.108595   23.878362 H          1 MOL1         0.0972
     129    H2      20.658816   19.542685   23.459245 H          1 MOL1         0.0972
     130    H3      18.898884   19.525629   23.185524 H          1 MOL1         0.0972
     131    C2      20.042848   18.347614   21.730327 C.3        1 MOL1        -0.1383
     132    H4      19.246088   17.632516   21.491628 H          1 MOL1         0.0961
     133    H5      20.988629   17.791180   21.717818 H          1 MOL1         0.0961
     134    C3      20.061540   19.446397   20.649008 C.3        1 MOL1        -0.1407
     135    H6      19.138010   20.036049   20.718601 H          1 MOL1         0.0961
     136    H7      20.894443   20.135358   20.832547 H          1 MOL1         0.0961
     137    C4      20.194854   18.847313   19.232007 C.3        1 MOL1        -0.1407
     138    H8      19.402570   18.105060   19.065555 H          1 MOL1         0.0961
     139    H9      21.149641   18.314087   19.153259 H          1 MOL1         0.0961
     140    C5      20.113278   19.937749   18.140868 C.3        1 MOL1        -0.1472
     141    H10     19.173481   20.489349   18.261617 H          1 MOL1         0.0961
     142    H11     20.927931   20.661084   18.277777 H          1 MOL1         0.0961
     143    C6      20.160165   19.363470   16.709869 C.3        1 MOL1         0.1190
     144    H12     19.337967   18.649563   16.594490 H          1 MOL1         0.0923
     145    C7      19.967905   20.492483   15.685293 C.3        1 MOL1        -0.2463
     146    H13     19.960447   20.091495   14.664473 H          1 MOL1         0.0972
     147    H14     19.012875   21.007177   15.847620 H          1 MOL1         0.0972
     148    H15     20.774621   21.232852   15.756621 H          1 MOL1         0.0972
     149    N1      21.432736   18.612560   16.432509 N.4        1 MOL1        -0.5974
     150    H16     22.260698   19.171754   16.689318 H          1 MOL1         0.3625
     151    H17     21.491080   17.737086   16.977112 H          1 MOL1         0.3625
     152    H18     21.517237   18.356137   15.446684 H          1 MOL1         0.3625
@<TRIPOS>BOND
    1     1     2    1
    2     1     3    1
    3     1     4    1
    4     4     5    1
    5     4     6    1
    6     6     7    1
    7     4     8    1
    8     8     9    1
    9     8    10    1
   10    10    11    1
   11     8    12    1
   12    12    13    1
   13    12    14    1
   14    14    15    1
   15     1    16    1
   16    14    16    1
   17    14    17    1
   18    17    18    1
   19    17    19    1
   20    17    20    1
   21    20    21    1
   22    22    23    1
   23    22    24    1
   24    22    25    1
   25    25    26    1
   26    25    27    1
   27    27    28    1
   28    25    29    1
   29    29    30    1
   30    29    31    1
   31    31    32    1
   32     3    33    1
   33    29    33    1
   34    33    34    1
   35    33    35    1
   36    35    36    1
   37    22    37    1
   38    35    37    1
   39    35    38    1
   40    38    39    1
   41    38    40    1
   42    38    41    1
   43    41    42    1
   44    43    44    1
   45    43    45    1
   46    43    46    1
   47    46    47    1
   48    46    48    1
   49    48    49    1
   50    46    50    1
   51    50    51    1
   52    50    52    1
   53    52    53    1
   54    24    54    1
   55    50    54    1
   56    54    55    1
   57    54    56    1
   58    56    57    1
   59    43    58    1
   60    56    58    1
   61    56    59    1
   62    59    60    1
   63    59    61    1
   64    59    62    1
   65    62    63    1
   66    64    65    1
   67    64    66    1
   68    64    67    1
   69    67    68    1
   70    67    69    1
   71    69    70    1
   72    67    71    1
   73    71    72    1
   74    71    73    1
   75    73    74    1
   76    45    75    1
   77    71    75    1
   78    75    76    1
   79    75    77    1
   80    77    78    1
   81    64    79    1
   82    77    79    1
   83    77    80    1
   84    80    81    1
   85    80    82    1
   86    80    83    1
   87    83    84    1
   88    85    86    1
   89    85    87    1
   90    85    88    1
   91    88    89    1
   92    88    90    1
   93    90    91    1
   94    88    92    1
   95    92    93    1
   96    92    94    1
   97    94    95    1
   98    66    96    1
   99    92    96    1
  100    96    97    1
  101    96    98    1
  102    98    99    1
  103    85   100    1
  104    98   100    1
  105    98   101    1
  106   101   102    1
  107   101   103    1
  108   101   104    1
  109   104   105    1
  110   106   107    1
  111    12   108    1
  112   106   108    1
  113   106   109    1
  114   109   110    1
  115   109   111    1
  116   111   112    1
  117   109   113    1
  118   113   114    1
  119   113   115    1
  120   115   116    1
  121    87   117    1
  122   113   117    1
  123   117   118    1
  124   117   119    1
  125   119   120    1
  126   106   121    1
  127   119   121    1
  128   119   122    1
  129   122   123    1
  130   122   124    1
  131   122   125    1
  132   125   126    1
  133   127   128    1
  134   127   129    1
  135   127   130    1
  136   127   131    1
  137   131   132    1
  138   131   133    1
  139   131   134    1
  140   134   135    1
  141   134   136    1
  142   134   137    1
  143   137   138    1
  144   137   139    1
  145   137   140    1
  146   140   141    1
  147   140   142    1
  148   140   143    1
  149   143   144    1
  150   143   145    1
  151   145   146    1
  152   145   147    1
  153   145   148    1
  154   143   149    1
  155   149   150    1
  156   149   151    1
  157   149   152    1
@<TRIPOS>SUBSTRUCTURE
       1 MOL1            1 RESIDUE      1      MOL     
       2 MOL1          152 RESIDUE      1      MOL     
@<SCITEGIC>MOL_PROPERTY
VM2 Rank
SciTegic.value.IntegerValue
7

@<SCITEGIC>MOL_PROPERTY
Conf_Id
SciTegic.value.IntegerValue
22735

@<SCITEGIC>MOL_PROPERTY
Probability
SciTegic.value.DoubleValue
1.36

@<SCITEGIC>MOL_PROPERTY
Sum Probability
SciTegic.value.DoubleValue
11.66

@<SCITEGIC>MOL_PROPERTY
Delta G
SciTegic.value.DoubleValue
0.283

@<SCITEGIC>MOL_PROPERTY
G
SciTegic.value.DoubleValue
542.301

@<SCITEGIC>MOL_PROPERTY
E
SciTegic.value.DoubleValue
337.746

@<SCITEGIC>MOL_PROPERTY
-TS
SciTegic.value.DoubleValue
204.555

@<SCITEGIC>MOL_PROPERTY
U+W
SciTegic.value.DoubleValue
203.609

@<SCITEGIC>MOL_PROPERTY
U
SciTegic.value.DoubleValue
268.102

@<SCITEGIC>MOL_PROPERTY
W
SciTegic.value.DoubleValue
-64.492

@<SCITEGIC>MOL_PROPERTY
W(PB)
SciTegic.value.DoubleValue
-70.587

@<SCITEGIC>MOL_PROPERTY
W(SA)
SciTegic.value.DoubleValue
6.095

@<SCITEGIC>MOL_PROPERTY
Valence
SciTegic.value.DoubleValue
148.281

@<SCITEGIC>MOL_PROPERTY
Coulomb
SciTegic.value.DoubleValue
144.733

@<SCITEGIC>MOL_PROPERTY
VdW
SciTegic.value.DoubleValue
-24.913

@<SCITEGIC>MOL_PROPERTY
VdW6
SciTegic.value.DoubleValue
-179.889

@<SCITEGIC>MOL_PROPERTY
VdW12
SciTegic.value.DoubleValue
154.977

@<SCITEGIC>MOL_PROPERTY
Bond
SciTegic.value.DoubleValue
4.298

@<SCITEGIC>MOL_PROPERTY
Angle
SciTegic.value.DoubleValue
9.988

@<SCITEGIC>MOL_PROPERTY
Pdih
SciTegic.value.DoubleValue
133.995

@<SCITEGIC>MOL_PROPERTY
Idih
SciTegic.value.DoubleValue
0.000

@<SCITEGIC>MOL_PROPERTY
Tether
SciTegic.value.DoubleValue
0.000

@<TRIPOS>MOLECULE
CD_guest-s13_vm2_rndm.mol2 : vm2 host+ligand conformer 8
         152         157           2
SMALL
USER_CHARGES
 
@<TRIPOS>ATOM
       1    C1      16.197589   15.271830   21.900158 C.3        1 MOL1         0.2972
       2    H1      15.135851   15.137115   22.143968 H          1 MOL1         0.0751
       3    O1      16.448477   16.543486   21.272712 O.3        1 MOL1        -0.3740
       4    C2      17.066027   15.177924   23.179454 C.3        1 MOL1         0.1003
       5    H2      16.941196   14.166877   23.588614 H          1 MOL1         0.0783
       6    O2      16.658378   16.143326   24.163258 O.3        1 MOL1        -0.5519
       7    H3      15.841114   16.581700   23.822372 H          1 MOL1         0.3769
       8    C3      18.557242   15.379934   22.828559 C.3        1 MOL1         0.1053
       9    H4      18.677242   16.419037   22.498029 H          1 MOL1         0.0783
      10    O3      19.357872   15.147633   23.992310 O.3        1 MOL1        -0.5519
      11    H5      18.901211   15.642723   24.708874 H          1 MOL1         0.3769
      12    C4      19.014276   14.451232   21.675474 C.3        1 MOL1         0.1018
      13    H6      19.168066   13.442723   22.081201 H          1 MOL1         0.0783
      14    C5      18.001166   14.395932   20.494872 C.3        1 MOL1         0.1043
      15    H7      18.076410   15.341139   19.941366 H          1 MOL1         0.0783
      16    O4      16.647934   14.242964   20.995425 O.3        1 MOL1        -0.3740
      17    C6      18.276848   13.257806   19.483065 C.3        1 MOL1         0.0138
      18    H8      19.174226   13.514894   18.904374 H          1 MOL1         0.0794
      19    H9      17.438028   13.208759   18.775820 H          1 MOL1         0.0794
      20    O5      18.459069   11.990994   20.127760 O.3        1 MOL1        -0.5486
      21    H10     18.535956   11.307549   19.426557 H          1 MOL1         0.3769
      22    C7      14.725202   20.158195   20.422806 C.3        1 MOL1         0.2972
      23    H11     14.122860   21.012943   20.090717 H          1 MOL1         0.0751
      24    O6      16.064035   20.562305   20.789319 O.3        1 MOL1        -0.3740
      25    C8      14.039530   19.412576   21.598364 C.3        1 MOL1         0.1003
      26    H12     13.099784   18.998748   21.209795 H          1 MOL1         0.0783
      27    O7      13.733512   20.288249   22.692173 O.3        1 MOL1        -0.5519
      28    H13     14.598415   20.593419   23.065274 H          1 MOL1         0.3769
      29    C9      14.919724   18.228696   22.064565 C.3        1 MOL1         0.1053
      30    H14     15.847112   18.640350   22.487032 H          1 MOL1         0.0783
      31    O8      14.223565   17.481907   23.067974 O.3        1 MOL1        -0.5519
      32    H15     13.788075   18.158361   23.634785 H          1 MOL1         0.3769
      33    C10     15.299758   17.307835   20.872678 C.3        1 MOL1         0.1018
      34    H16     14.451005   16.662278   20.609835 H          1 MOL1         0.0783
      35    C11     15.746387   18.092117   19.610355 C.3        1 MOL1         0.1043
      36    H17     16.761906   18.464508   19.783577 H          1 MOL1         0.0783
      37    O9      14.843176   19.196893   19.354791 O.3        1 MOL1        -0.3740
      38    C12     15.773138   17.201558   18.351393 C.3        1 MOL1         0.0138
      39    H18     14.751474   16.875537   18.114891 H          1 MOL1         0.0794
      40    H19     16.371640   16.303965   18.555037 H          1 MOL1         0.0794
      41    O10     16.336957   17.924016   17.255432 O.3        1 MOL1        -0.5486
      42    H20     15.814235   18.751971   17.179606 H          1 MOL1         0.3769
      43    C13     18.399603   23.766227   22.035695 C.3        1 MOL1         0.2972
      44    H21     18.759568   24.738666   22.395270 H          1 MOL1         0.0751
      45    O11     19.481599   22.953506   21.537107 O.3        1 MOL1        -0.3740
      46    C14     17.665524   23.011251   23.175771 C.3        1 MOL1         0.1003
      47    H22     16.839032   23.655056   23.503851 H          1 MOL1         0.0783
      48    O12     18.530061   22.752653   24.293388 O.3        1 MOL1        -0.5519
      49    H23     19.288336   23.381555   24.224887 H          1 MOL1         0.3769
      50    C15     17.065044   21.680010   22.672232 C.3        1 MOL1         0.1053
      51    H24     17.897216   21.003523   22.450059 H          1 MOL1         0.0783
      52    O13     16.263822   21.120806   23.715472 O.3        1 MOL1        -0.5519
      53    H25     16.822155   21.201424   24.521916 H          1 MOL1         0.3769
      54    C16     16.233349   21.868394   21.375875 C.3        1 MOL1         0.1018
      55    H26     15.272158   22.336135   21.627779 H          1 MOL1         0.0783
      56    C17     16.980442   22.737723   20.327684 C.3        1 MOL1         0.1043
      57    H27     17.823440   22.159036   19.928202 H          1 MOL1         0.0783
      58    O14     17.456542   23.952441   20.959495 O.3        1 MOL1        -0.3740
      59    C18     16.081911   23.150143   19.143991 C.3        1 MOL1         0.0138
      60    H28     15.250704   23.765160   19.514144 H          1 MOL1         0.0794
      61    H29     15.656425   22.251028   18.679285 H          1 MOL1         0.0794
      62    O15     16.851857   23.871431   18.180677 O.3        1 MOL1        -0.5486
      63    H30     17.300943   24.592054   18.676184 H          1 MOL1         0.3769
      64    C19     23.641123   22.923692   21.621345 C.3        1 MOL1         0.2972
      65    H31     24.707600   23.170047   21.544692 H          1 MOL1         0.0751
      66    O16     23.428828   21.526501   21.896981 O.3        1 MOL1        -0.3740
      67    C20     22.989760   23.725447   22.770996 C.3        1 MOL1         0.1003
      68    H32     23.130997   24.791429   22.549741 H          1 MOL1         0.0783
      69    O17     23.622321   23.411935   24.022601 O.3        1 MOL1        -0.5519
      70    H33     23.837869   22.446218   24.003824 H          1 MOL1         0.3769
      71    C21     21.467759   23.451132   22.852835 C.3        1 MOL1         0.1053
      72    H34     21.328550   22.417688   23.199715 H          1 MOL1         0.0783
      73    O18     20.900273   24.363116   23.799727 O.3        1 MOL1        -0.5519
      74    H35     21.545171   24.386595   24.543334 H          1 MOL1         0.3769
      75    C22     20.775194   23.587615   21.465189 C.3        1 MOL1         0.1018
      76    H36     20.685639   24.648576   21.196226 H          1 MOL1         0.0783
      77    C23     21.562537   22.858516   20.343376 C.3        1 MOL1         0.1043
      78    H37     21.468589   21.774280   20.488773 H          1 MOL1         0.0783
      79    O19     22.949780   23.263572   20.404415 O.3        1 MOL1        -0.3740
      80    C24     21.054164   23.199950   18.927044 C.3        1 MOL1         0.0138
      81    H38     21.288123   24.248647   18.700438 H          1 MOL1         0.0794
      82    H39     19.962159   23.090244   18.893548 H          1 MOL1         0.0794
      83    O20     21.665582   22.328156   17.969380 O.3        1 MOL1        -0.5486
      84    H40     22.635896   22.393021   18.112949 H          1 MOL1         0.3769
      85    C25     25.157173   17.781713   21.590120 C.3        1 MOL1         0.2972
      86    H41     25.839774   16.929080   21.484367 H          1 MOL1         0.0751
      87    O21     23.778208   17.364444   21.630457 O.3        1 MOL1        -0.3740
      88    C26     25.469849   18.546660   22.899154 C.3        1 MOL1         0.1003
      89    H42     26.506382   18.902389   22.835120 H          1 MOL1         0.0783
      90    O22     25.336112   17.683615   24.039654 O.3        1 MOL1        -0.5519
      91    H43     24.683107   16.979373   23.798941 H          1 MOL1         0.3769
      92    C27     24.549846   19.780464   23.042083 C.3        1 MOL1         0.1053
      93    H44     23.524540   19.420677   23.200624 H          1 MOL1         0.0783
      94    O23     24.962342   20.562356   24.168189 O.3        1 MOL1        -0.5519
      95    H45     25.098910   19.911545   24.892476 H          1 MOL1         0.3769
      96    C28     24.566958   20.655802   21.763997 C.3        1 MOL1         0.1018
      97    H46     25.513732   21.210910   21.729412 H          1 MOL1         0.0783
      98    C29     24.399168   19.822580   20.461678 C.3        1 MOL1         0.1043
      99    H47     23.361400   19.469467   20.406712 H          1 MOL1         0.0783
     100    O24     25.317324   18.700893   20.490672 O.3        1 MOL1        -0.3740
     101    C30     24.710051   20.622684   19.177086 C.3        1 MOL1         0.0138
     102    H48     25.798117   20.712250   19.057820 H          1 MOL1         0.0794
     103    H49     24.310698   21.635979   19.265024 H          1 MOL1         0.0794
     104    O25     24.125840   19.988188   18.037016 O.3        1 MOL1        -0.5486
     105    H50     24.549731   19.108164   17.950784 H          1 MOL1         0.3769
     106    C31     21.296870   14.107773   20.845179 C.3        1 MOL1         0.2972
     107    H51     20.901011   13.134316   20.529501 H          1 MOL1         0.0751
     108    O26     20.235296   15.025624   21.169193 O.3        1 MOL1        -0.3740
     109    C32     22.245562   13.951889   22.067682 C.3        1 MOL1         0.1003
     110    H52     23.057278   13.280088   21.759757 H          1 MOL1         0.0783
     111    O27     21.574907   13.380020   23.201502 O.3        1 MOL1        -0.5519
     112    H53     20.843917   14.000781   23.450392 H          1 MOL1         0.3769
     113    C33     22.876135   15.310174   22.456407 C.3        1 MOL1         0.1053
     114    H54     22.077528   15.957431   22.843905 H          1 MOL1         0.0783
     115    O28     23.867425   15.107109   23.468428 O.3        1 MOL1        -0.5519
     116    H55     23.455669   14.487947   24.111906 H          1 MOL1         0.3769
     117    C34     23.513868   16.006612   21.229713 C.3        1 MOL1         0.1018
     118    H56     24.428596   15.470188   20.944531 H          1 MOL1         0.0783
     119    C35     22.549117   16.042569   20.017336 C.3        1 MOL1         0.1043
     120    H57     21.721989   16.720025   20.253663 H          1 MOL1         0.0783
     121    O29     22.056119   14.702454   19.770281 O.3        1 MOL1        -0.3740
     122    C36     23.224062   16.541314   18.723043 C.3        1 MOL1         0.0138
     123    H58     23.902549   15.766625   18.341611 H          1 MOL1         0.0794
     124    H59     23.826094   17.426525   18.948029 H          1 MOL1         0.0794
     125    O30     22.234831   16.877437   17.747953 O.3        1 MOL1        -0.5486
     126    H60     21.713685   16.059617   17.592049 H          1 MOL1         0.3769
     127    C1      20.015728   19.069272   23.560673 C.3        1 MOL1        -0.2398
     128    H1      18.995596   18.702051   23.735520 H          1 MOL1         0.0972
     129    H2      20.668387   18.628049   24.324874 H          1 MOL1         0.0972
     130    H3      20.015726   20.158182   23.703410 H          1 MOL1         0.0972
     131    C2      20.505381   18.694725   22.146635 C.3        1 MOL1        -0.1383
     132    H4      20.534807   17.603348   22.046815 H          1 MOL1         0.0961
     133    H5      21.534393   19.052255   22.011347 H          1 MOL1         0.0961
     134    C3      19.600432   19.299979   21.054324 C.3        1 MOL1        -0.1407
     135    H6      18.560718   18.981918   21.211300 H          1 MOL1         0.0961
     136    H7      19.619160   20.391370   21.151501 H          1 MOL1         0.0961
     137    C4      20.053586   18.911624   19.631360 C.3        1 MOL1        -0.1407
     138    H8      19.867201   17.842319   19.460502 H          1 MOL1         0.0961
     139    H9      21.136582   19.070037   19.546111 H          1 MOL1         0.0961
     140    C5      19.321557   19.749315   18.556859 C.3        1 MOL1        -0.1472
     141    H10     18.239600   19.602405   18.648750 H          1 MOL1         0.0961
     142    H11     19.501182   20.813449   18.744287 H          1 MOL1         0.0961
     143    C6      19.748980   19.411459   17.113760 C.3        1 MOL1         0.1190
     144    H12     19.496446   18.366262   16.909552 H          1 MOL1         0.0923
     145    C7      18.982701   20.300896   16.122306 C.3        1 MOL1        -0.2463
     146    H13     19.243088   20.043466   15.088689 H          1 MOL1         0.0972
     147    H14     17.899938   20.168724   16.237193 H          1 MOL1         0.0972
     148    H15     19.217343   21.361451   16.281644 H          1 MOL1         0.0972
     149    N1      21.232058   19.550943   16.906289 N.4        1 MOL1        -0.5974
     150    H16     21.568973   20.467501   17.240710 H          1 MOL1         0.3625
     151    H17     21.753798   18.819197   17.414250 H          1 MOL1         0.3625
     152    H18     21.487274   19.464990   15.920509 H          1 MOL1         0.3625
@<TRIPOS>BOND
    1     1     2    1
    2     1     3    1
    3     1     4    1
    4     4     5    1
    5     4     6    1
    6     6     7    1
    7     4     8    1
    8     8     9    1
    9     8    10    1
   10    10    11    1
   11     8    12    1
   12    12    13    1
   13    12    14    1
   14    14    15    1
   15     1    16    1
   16    14    16    1
   17    14    17    1
   18    17    18    1
   19    17    19    1
   20    17    20    1
   21    20    21    1
   22    22    23    1
   23    22    24    1
   24    22    25    1
   25    25    26    1
   26    25    27    1
   27    27    28    1
   28    25    29    1
   29    29    30    1
   30    29    31    1
   31    31    32    1
   32     3    33    1
   33    29    33    1
   34    33    34    1
   35    33    35    1
   36    35    36    1
   37    22    37    1
   38    35    37    1
   39    35    38    1
   40    38    39    1
   41    38    40    1
   42    38    41    1
   43    41    42    1
   44    43    44    1
   45    43    45    1
   46    43    46    1
   47    46    47    1
   48    46    48    1
   49    48    49    1
   50    46    50    1
   51    50    51    1
   52    50    52    1
   53    52    53    1
   54    24    54    1
   55    50    54    1
   56    54    55    1
   57    54    56    1
   58    56    57    1
   59    43    58    1
   60    56    58    1
   61    56    59    1
   62    59    60    1
   63    59    61    1
   64    59    62    1
   65    62    63    1
   66    64    65    1
   67    64    66    1
   68    64    67    1
   69    67    68    1
   70    67    69    1
   71    69    70    1
   72    67    71    1
   73    71    72    1
   74    71    73    1
   75    73    74    1
   76    45    75    1
   77    71    75    1
   78    75    76    1
   79    75    77    1
   80    77    78    1
   81    64    79    1
   82    77    79    1
   83    77    80    1
   84    80    81    1
   85    80    82    1
   86    80    83    1
   87    83    84    1
   88    85    86    1
   89    85    87    1
   90    85    88    1
   91    88    89    1
   92    88    90    1
   93    90    91    1
   94    88    92    1
   95    92    93    1
   96    92    94    1
   97    94    95    1
   98    66    96    1
   99    92    96    1
  100    96    97    1
  101    96    98    1
  102    98    99    1
  103    85   100    1
  104    98   100    1
  105    98   101    1
  106   101   102    1
  107   101   103    1
  108   101   104    1
  109   104   105    1
  110   106   107    1
  111    12   108    1
  112   106   108    1
  113   106   109    1
  114   109   110    1
  115   109   111    1
  116   111   112    1
  117   109   113    1
  118   113   114    1
  119   113   115    1
  120   115   116    1
  121    87   117    1
  122   113   117    1
  123   117   118    1
  124   117   119    1
  125   119   120    1
  126   106   121    1
  127   119   121    1
  128   119   122    1
  129   122   123    1
  130   122   124    1
  131   122   125    1
  132   125   126    1
  133   127   128    1
  134   127   129    1
  135   127   130    1
  136   127   131    1
  137   131   132    1
  138   131   133    1
  139   131   134    1
  140   134   135    1
  141   134   136    1
  142   134   137    1
  143   137   138    1
  144   137   139    1
  145   137   140    1
  146   140   141    1
  147   140   142    1
  148   140   143    1
  149   143   144    1
  150   143   145    1
  151   145   146    1
  152   145   147    1
  153   145   148    1
  154   143   149    1
  155   149   150    1
  156   149   151    1
  157   149   152    1
@<TRIPOS>SUBSTRUCTURE
       1 MOL1            1 RESIDUE      1      MOL     
       2 MOL1          152 RESIDUE      1      MOL     
@<SCITEGIC>MOL_PROPERTY
VM2 Rank
SciTegic.value.IntegerValue
8

@<SCITEGIC>MOL_PROPERTY
Conf_Id
SciTegic.value.IntegerValue
20666

@<SCITEGIC>MOL_PROPERTY
Probability
SciTegic.value.DoubleValue
1.33

@<SCITEGIC>MOL_PROPERTY
Sum Probability
SciTegic.value.DoubleValue
12.99

@<SCITEGIC>MOL_PROPERTY
Delta G
SciTegic.value.DoubleValue
0.299

@<SCITEGIC>MOL_PROPERTY
G
SciTegic.value.DoubleValue
542.317

@<SCITEGIC>MOL_PROPERTY
E
SciTegic.value.DoubleValue
338.709

@<SCITEGIC>MOL_PROPERTY
-TS
SciTegic.value.DoubleValue
203.609

@<SCITEGIC>MOL_PROPERTY
U+W
SciTegic.value.DoubleValue
204.572

@<SCITEGIC>MOL_PROPERTY
U
SciTegic.value.DoubleValue
265.271

@<SCITEGIC>MOL_PROPERTY
W
SciTegic.value.DoubleValue
-60.699

@<SCITEGIC>MOL_PROPERTY
W(PB)
SciTegic.value.DoubleValue
-66.661

@<SCITEGIC>MOL_PROPERTY
W(SA)
SciTegic.value.DoubleValue
5.963

@<SCITEGIC>MOL_PROPERTY
Valence
SciTegic.value.DoubleValue
148.355

@<SCITEGIC>MOL_PROPERTY
Coulomb
SciTegic.value.DoubleValue
144.959

@<SCITEGIC>MOL_PROPERTY
VdW
SciTegic.value.DoubleValue
-28.042

@<SCITEGIC>MOL_PROPERTY
VdW6
SciTegic.value.DoubleValue
-183.017

@<SCITEGIC>MOL_PROPERTY
VdW12
SciTegic.value.DoubleValue
154.975

@<SCITEGIC>MOL_PROPERTY
Bond
SciTegic.value.DoubleValue
4.218

@<SCITEGIC>MOL_PROPERTY
Angle
SciTegic.value.DoubleValue
10.406

@<SCITEGIC>MOL_PROPERTY
Pdih
SciTegic.value.DoubleValue
133.731

@<SCITEGIC>MOL_PROPERTY
Idih
SciTegic.value.DoubleValue
0.000

@<SCITEGIC>MOL_PROPERTY
Tether
SciTegic.value.DoubleValue
0.000

