@<TRIPOS>MOLECULE
CD_guest-s21_vm2_rndm.mol2 : vm2 host+ligand conformer 1
         148         153           2
SMALL
USER_CHARGES
 
@<TRIPOS>ATOM
       1    C1      16.339575   15.162069   21.017991 C.3        1 MOL1         0.2972
       2    H1      15.284756   14.966913   20.788022 H          1 MOL1         0.0751
       3    O1      16.562385   16.542537   21.370148 O.3        1 MOL1        -0.3740
       4    C2      16.796568   14.269935   22.201663 C.3        1 MOL1         0.1003
       5    H2      16.621235   13.226872   21.907808 H          1 MOL1         0.0783
       6    O2      16.048812   14.553116   23.392426 O.3        1 MOL1        -0.5519
       7    H3      16.515301   14.055882   24.101537 H          1 MOL1         0.3769
       8    C3      18.309433   14.433749   22.480042 C.3        1 MOL1         0.1053
       9    H4      18.482909   15.447970   22.865720 H          1 MOL1         0.0783
      10    O3      18.722189   13.459336   23.446621 O.3        1 MOL1        -0.5519
      11    H5      19.702499   13.551312   23.546896 H          1 MOL1         0.3769
      12    C4      19.133173   14.261061   21.181513 C.3        1 MOL1         0.1018
      13    H6      19.103480   13.205721   20.879567 H          1 MOL1         0.0783
      14    C5      18.578230   15.128690   20.022834 C.3        1 MOL1         0.1043
      15    H7      18.740078   16.188921   20.256825 H          1 MOL1         0.0783
      16    O4      17.164679   14.844755   19.876315 O.3        1 MOL1        -0.3740
      17    C6      19.255993   14.807783   18.673712 C.3        1 MOL1         0.0138
      18    H8      19.140162   13.738035   18.454901 H          1 MOL1         0.0794
      19    H9      20.329660   15.019846   18.747723 H          1 MOL1         0.0794
      20    O5      18.677832   15.594232   17.630730 O.3        1 MOL1        -0.5486
      21    H10     17.708097   15.452686   17.694221 H          1 MOL1         0.3769
      22    C7      14.703794   20.276268   21.281262 C.3        1 MOL1         0.2972
      23    H11     13.983444   21.095953   21.165264 H          1 MOL1         0.0751
      24    O6      16.030291   20.764880   21.551256 O.3        1 MOL1        -0.3740
      25    C8      14.286660   19.347547   22.450761 C.3        1 MOL1         0.1003
      26    H12     13.286751   18.958544   22.218569 H          1 MOL1         0.0783
      27    O7      14.238695   20.061134   23.694524 O.3        1 MOL1        -0.5519
      28    H13     14.113359   19.362300   24.375434 H          1 MOL1         0.3769
      29    C9      15.248706   18.141895   22.577885 C.3        1 MOL1         0.1053
      30    H14     16.229049   18.513796   22.906990 H          1 MOL1         0.0783
      31    O8      14.725658   17.218053   23.540360 O.3        1 MOL1        -0.5519
      32    H15     15.293716   16.408710   23.495900 H          1 MOL1         0.3769
      33    C10     15.432317   17.424732   21.218447 C.3        1 MOL1         0.1018
      34    H16     14.508850   16.876810   20.989662 H          1 MOL1         0.0783
      35    C11     15.737062   18.418423   20.064177 C.3        1 MOL1         0.1043
      36    H17     16.740975   18.835798   20.211084 H          1 MOL1         0.0783
      37    O9      14.754903   19.483334   20.075697 O.3        1 MOL1        -0.3740
      38    C12     15.699277   17.767293   18.664727 C.3        1 MOL1         0.0138
      39    H18     16.489441   17.009702   18.602762 H          1 MOL1         0.0794
      40    H19     15.924894   18.534752   17.912414 H          1 MOL1         0.0794
      41    O10     14.423040   17.175496   18.403886 O.3        1 MOL1        -0.5486
      42    H20     13.760595   17.891509   18.524321 H          1 MOL1         0.3769
      43    C13     18.410494   24.116134   21.539500 C.3        1 MOL1         0.2972
      44    H21     18.848111   25.122452   21.539959 H          1 MOL1         0.0751
      45    O11     19.413427   23.096349   21.352205 O.3        1 MOL1        -0.3740
      46    C14     17.670864   23.861187   22.875897 C.3        1 MOL1         0.1003
      47    H22     16.857721   24.595333   22.946276 H          1 MOL1         0.0783
      48    O12     18.546721   24.021068   23.999864 O.3        1 MOL1        -0.5519
      49    H23     18.043386   23.650932   24.759699 H          1 MOL1         0.3769
      50    C15     17.039896   22.451707   22.891090 C.3        1 MOL1         0.1053
      51    H24     17.854818   21.718138   22.911577 H          1 MOL1         0.0783
      52    O13     16.219908   22.302124   24.056557 O.3        1 MOL1        -0.5519
      53    H25     15.698685   21.471061   23.929493 H          1 MOL1         0.3769
      54    C16     16.186243   22.193367   21.625404 C.3        1 MOL1         0.1018
      55    H26     15.224370   22.709073   21.746189 H          1 MOL1         0.0783
      56    C17     16.875480   22.658888   20.311011 C.3        1 MOL1         0.1043
      57    H27     17.674282   21.945246   20.070356 H          1 MOL1         0.0783
      58    O14     17.439414   23.984168   20.480491 O.3        1 MOL1        -0.3740
      59    C18     15.916335   22.713558   19.101340 C.3        1 MOL1         0.0138
      60    H28     15.546396   21.702497   18.887951 H          1 MOL1         0.0794
      61    H29     16.480118   23.047180   18.219867 H          1 MOL1         0.0794
      62    O15     14.820333   23.598194   19.352474 O.3        1 MOL1        -0.5486
      63    H30     15.217713   24.470213   19.572187 H          1 MOL1         0.3769
      64    C19     23.465973   22.566839   20.637201 C.3        1 MOL1         0.2972
      65    H31     24.512422   22.660975   20.320134 H          1 MOL1         0.0751
      66    O16     23.171131   21.227466   21.080879 O.3        1 MOL1        -0.3740
      67    C20     23.136127   23.580036   21.768222 C.3        1 MOL1         0.1003
      68    H32     23.304550   24.584585   21.359776 H          1 MOL1         0.0783
      69    O17     24.004512   23.390291   22.896589 O.3        1 MOL1        -0.5519
      70    H33     23.765932   22.517073   23.296926 H          1 MOL1         0.3769
      71    C21     21.641683   23.482271   22.177558 C.3        1 MOL1         0.1053
      72    H34     21.485234   22.509847   22.664870 H          1 MOL1         0.0783
      73    O18     21.298990   24.541353   23.080270 O.3        1 MOL1        -0.5519
      74    H35     20.398765   24.330966   23.431533 H          1 MOL1         0.3769
      75    C22     20.712667   23.558333   20.936958 C.3        1 MOL1         0.1018
      76    H36     20.680256   24.593040   20.570639 H          1 MOL1         0.0783
      77    C23     21.178934   22.639502   19.777823 C.3        1 MOL1         0.1043
      78    H37     20.997583   21.596679   20.065184 H          1 MOL1         0.0783
      79    O19     22.590648   22.850739   19.526813 O.3        1 MOL1        -0.3740
      80    C24     20.425319   22.901411   18.455252 C.3        1 MOL1         0.0138
      81    H38     19.351300   22.743196   18.615326 H          1 MOL1         0.0794
      82    H39     20.758535   22.166682   17.710018 H          1 MOL1         0.0794
      83    O20     20.662249   24.230907   17.982918 O.3        1 MOL1        -0.5486
      84    H40     21.639232   24.334683   17.947428 H          1 MOL1         0.3769
      85    C25     24.984154   17.683038   22.209475 C.3        1 MOL1         0.2972
      86    H41     25.661527   16.888542   22.547386 H          1 MOL1         0.0751
      87    O21     23.761057   17.145440   21.663983 O.3        1 MOL1        -0.3740
      88    C26     24.637434   18.632713   23.385332 C.3        1 MOL1         0.1003
      89    H42     25.572566   19.103756   23.714647 H          1 MOL1         0.0783
      90    O22     24.085492   17.883819   24.479246 O.3        1 MOL1        -0.5519
      91    H43     23.405534   18.453220   24.924346 H          1 MOL1         0.3769
      92    C27     23.686002   19.760974   22.908539 C.3        1 MOL1         0.1053
      93    H44     22.726139   19.309377   22.629890 H          1 MOL1         0.0783
      94    O23     23.487554   20.720654   23.955652 O.3        1 MOL1        -0.5519
      95    H45     22.846347   20.309417   24.593563 H          1 MOL1         0.3769
      96    C28     24.257337   20.477824   21.657673 C.3        1 MOL1         0.1018
      97    H46     25.081565   21.130096   21.974962 H          1 MOL1         0.0783
      98    C29     24.760964   19.483840   20.572712 C.3        1 MOL1         0.1043
      99    H47     23.886004   19.003934   20.113896 H          1 MOL1         0.0783
     100    O24     25.609880   18.478079   21.180349 O.3        1 MOL1        -0.3740
     101    C30     25.567588   20.155254   19.438919 C.3        1 MOL1         0.0138
     102    H48     24.905625   20.828630   18.878561 H          1 MOL1         0.0794
     103    H49     25.907115   19.378422   18.740746 H          1 MOL1         0.0794
     104    O25     26.686761   20.880141   19.957067 O.3        1 MOL1        -0.5486
     105    H50     27.222393   20.231963   20.466350 H          1 MOL1         0.3769
     106    C31     21.517011   13.719271   21.322323 C.3        1 MOL1         0.2972
     107    H51     21.113232   12.710222   21.172887 H          1 MOL1         0.0751
     108    O26     20.470782   14.701375   21.479424 O.3        1 MOL1        -0.3740
     109    C32     22.415559   13.743516   22.581118 C.3        1 MOL1         0.1003
     110    H52     23.246057   13.047240   22.405886 H          1 MOL1         0.0783
     111    O27     21.686980   13.327860   23.744540 O.3        1 MOL1        -0.5519
     112    H53     22.289635   13.522710   24.497098 H          1 MOL1         0.3769
     113    C33     23.012986   15.150117   22.808751 C.3        1 MOL1         0.1053
     114    H54     22.189560   15.819805   23.089281 H          1 MOL1         0.0783
     115    O28     23.966003   15.080788   23.875370 O.3        1 MOL1        -0.5519
     116    H55     24.093697   16.010927   24.187760 H          1 MOL1         0.3769
     117    C34     23.678557   15.714116   21.522310 C.3        1 MOL1         0.1018
     118    H56     24.670338   15.262226   21.388744 H          1 MOL1         0.0783
     119    C35     22.835239   15.467302   20.240295 C.3        1 MOL1         0.1043
     120    H57     21.989235   16.165260   20.246377 H          1 MOL1         0.0783
     121    O29     22.338839   14.106005   20.203225 O.3        1 MOL1        -0.3740
     122    C36     23.634191   15.713056   18.941428 C.3        1 MOL1         0.0138
     123    H58     24.004317   16.747065   18.938536 H          1 MOL1         0.0794
     124    H59     22.956772   15.602831   18.084094 H          1 MOL1         0.0794
     125    O30     24.727011   14.796607   18.829977 O.3        1 MOL1        -0.5486
     126    H60     24.339550   13.898507   18.929712 H          1 MOL1         0.3769
     127    C1      20.751428   18.475340   25.302331 C.2        1 MOL1         0.6145
     128    O1      20.076257   18.048431   26.217723 O.co2      1 MOL1        -0.6735
     129    O2      21.779535   19.109837   25.455493 O.co2      1 MOL1        -0.6735
     130    C2      20.277915   18.218516   23.874964 C.3        1 MOL1        -0.1985
     131    H1      19.509996   17.436576   23.900387 H          1 MOL1         0.0740
     132    H2      21.125681   17.821529   23.309146 H          1 MOL1         0.0740
     133    C3      19.716507   19.493519   23.197042 C.3        1 MOL1        -0.1882
     134    H3      18.896436   19.881379   23.815710 H          1 MOL1         0.0742
     135    H4      20.488188   20.275006   23.181064 H          1 MOL1         0.0742
     136    C4      19.192538   19.255611   21.762973 C.3        1 MOL1        -0.1880
     137    H5      18.734538   20.186026   21.406430 H          1 MOL1         0.0742
     138    H6      18.399423   18.499009   21.784385 H          1 MOL1         0.0742
     139    C5      20.290149   18.825266   20.766692 C.3        1 MOL1        -0.1880
     140    H7      21.167280   19.471104   20.888223 H          1 MOL1         0.0742
     141    H8      20.614557   17.802607   20.994066 H          1 MOL1         0.0742
     142    C6      19.797734   18.906438   19.306394 C.3        1 MOL1        -0.1856
     143    H9      19.427804   19.918630   19.096429 H          1 MOL1         0.0742
     144    H10     18.951849   18.222939   19.157039 H          1 MOL1         0.0742
     145    C7      20.920169   18.561711   18.308928 C.3        1 MOL1        -0.2871
     146    H11     21.781250   19.230301   18.438249 H          1 MOL1         0.0754
     147    H12     20.561287   18.661820   17.276660 H          1 MOL1         0.0754
     148    H13     21.258153   17.528230   18.446282 H          1 MOL1         0.0754
@<TRIPOS>BOND
    1     1     2    1
    2     1     3    1
    3     1     4    1
    4     4     5    1
    5     4     6    1
    6     6     7    1
    7     4     8    1
    8     8     9    1
    9     8    10    1
   10    10    11    1
   11     8    12    1
   12    12    13    1
   13    12    14    1
   14    14    15    1
   15     1    16    1
   16    14    16    1
   17    14    17    1
   18    17    18    1
   19    17    19    1
   20    17    20    1
   21    20    21    1
   22    22    23    1
   23    22    24    1
   24    22    25    1
   25    25    26    1
   26    25    27    1
   27    27    28    1
   28    25    29    1
   29    29    30    1
   30    29    31    1
   31    31    32    1
   32     3    33    1
   33    29    33    1
   34    33    34    1
   35    33    35    1
   36    35    36    1
   37    22    37    1
   38    35    37    1
   39    35    38    1
   40    38    39    1
   41    38    40    1
   42    38    41    1
   43    41    42    1
   44    43    44    1
   45    43    45    1
   46    43    46    1
   47    46    47    1
   48    46    48    1
   49    48    49    1
   50    46    50    1
   51    50    51    1
   52    50    52    1
   53    52    53    1
   54    24    54    1
   55    50    54    1
   56    54    55    1
   57    54    56    1
   58    56    57    1
   59    43    58    1
   60    56    58    1
   61    56    59    1
   62    59    60    1
   63    59    61    1
   64    59    62    1
   65    62    63    1
   66    64    65    1
   67    64    66    1
   68    64    67    1
   69    67    68    1
   70    67    69    1
   71    69    70    1
   72    67    71    1
   73    71    72    1
   74    71    73    1
   75    73    74    1
   76    45    75    1
   77    71    75    1
   78    75    76    1
   79    75    77    1
   80    77    78    1
   81    64    79    1
   82    77    79    1
   83    77    80    1
   84    80    81    1
   85    80    82    1
   86    80    83    1
   87    83    84    1
   88    85    86    1
   89    85    87    1
   90    85    88    1
   91    88    89    1
   92    88    90    1
   93    90    91    1
   94    88    92    1
   95    92    93    1
   96    92    94    1
   97    94    95    1
   98    66    96    1
   99    92    96    1
  100    96    97    1
  101    96    98    1
  102    98    99    1
  103    85   100    1
  104    98   100    1
  105    98   101    1
  106   101   102    1
  107   101   103    1
  108   101   104    1
  109   104   105    1
  110   106   107    1
  111    12   108    1
  112   106   108    1
  113   106   109    1
  114   109   110    1
  115   109   111    1
  116   111   112    1
  117   109   113    1
  118   113   114    1
  119   113   115    1
  120   115   116    1
  121    87   117    1
  122   113   117    1
  123   117   118    1
  124   117   119    1
  125   119   120    1
  126   106   121    1
  127   119   121    1
  128   119   122    1
  129   122   123    1
  130   122   124    1
  131   122   125    1
  132   125   126    1
  133   127   128    1
  134   127   129    2
  135   127   130    1
  136   130   131    1
  137   130   132    1
  138   130   133    1
  139   133   134    1
  140   133   135    1
  141   133   136    1
  142   136   137    1
  143   136   138    1
  144   136   139    1
  145   139   140    1
  146   139   141    1
  147   139   142    1
  148   142   143    1
  149   142   144    1
  150   142   145    1
  151   145   146    1
  152   145   147    1
  153   145   148    1
@<TRIPOS>SUBSTRUCTURE
       1 MOL1            1 RESIDUE      1      MOL     
       2 MOL1          148 RESIDUE      1      MOL     
@<SCITEGIC>MOL_PROPERTY
VM2 Rank
SciTegic.value.IntegerValue
1

@<SCITEGIC>MOL_PROPERTY
Conf_Id
SciTegic.value.IntegerValue
23773

@<SCITEGIC>MOL_PROPERTY
Probability
SciTegic.value.DoubleValue
3.00

@<SCITEGIC>MOL_PROPERTY
Sum Probability
SciTegic.value.DoubleValue
3.00

@<SCITEGIC>MOL_PROPERTY
Delta G
SciTegic.value.DoubleValue
0.000

@<SCITEGIC>MOL_PROPERTY
G
SciTegic.value.DoubleValue
497.028

@<SCITEGIC>MOL_PROPERTY
E
SciTegic.value.DoubleValue
304.940

@<SCITEGIC>MOL_PROPERTY
-TS
SciTegic.value.DoubleValue
192.088

@<SCITEGIC>MOL_PROPERTY
U+W
SciTegic.value.DoubleValue
174.381

@<SCITEGIC>MOL_PROPERTY
U
SciTegic.value.DoubleValue
247.971

@<SCITEGIC>MOL_PROPERTY
W
SciTegic.value.DoubleValue
-73.590

@<SCITEGIC>MOL_PROPERTY
W(PB)
SciTegic.value.DoubleValue
-79.735

@<SCITEGIC>MOL_PROPERTY
W(SA)
SciTegic.value.DoubleValue
6.145

@<SCITEGIC>MOL_PROPERTY
Valence
SciTegic.value.DoubleValue
151.084

@<SCITEGIC>MOL_PROPERTY
Coulomb
SciTegic.value.DoubleValue
123.844

@<SCITEGIC>MOL_PROPERTY
VdW
SciTegic.value.DoubleValue
-26.957

@<SCITEGIC>MOL_PROPERTY
VdW6
SciTegic.value.DoubleValue
-181.952

@<SCITEGIC>MOL_PROPERTY
VdW12
SciTegic.value.DoubleValue
154.994

@<SCITEGIC>MOL_PROPERTY
Bond
SciTegic.value.DoubleValue
4.460

@<SCITEGIC>MOL_PROPERTY
Angle
SciTegic.value.DoubleValue
11.005

@<SCITEGIC>MOL_PROPERTY
Pdih
SciTegic.value.DoubleValue
135.619

@<SCITEGIC>MOL_PROPERTY
Idih
SciTegic.value.DoubleValue
0.000

@<SCITEGIC>MOL_PROPERTY
Tether
SciTegic.value.DoubleValue
0.000

@<TRIPOS>MOLECULE
CD_guest-s21_vm2_rndm.mol2 : vm2 host+ligand conformer 2
         148         153           2
SMALL
USER_CHARGES
 
@<TRIPOS>ATOM
       1    C1      16.331787   15.229040   21.597716 C.3        1 MOL1         0.2972
       2    H1      15.254598   15.087473   21.752207 H          1 MOL1         0.0751
       3    O1      16.639746   16.586232   21.217105 O.3        1 MOL1        -0.3740
       4    C2      17.109536   14.868114   22.888344 C.3        1 MOL1         0.1003
       5    H2      16.912015   13.809095   23.099731 H          1 MOL1         0.0783
       6    O2      16.683883   15.650440   24.011054 O.3        1 MOL1        -0.5519
       7    H3      17.386776   15.509243   24.685601 H          1 MOL1         0.3769
       8    C3      18.631799   15.027543   22.681509 C.3        1 MOL1         0.1053
       9    H4      18.853606   16.091271   22.526136 H          1 MOL1         0.0783
      10    O3      19.305904   14.545283   23.849103 O.3        1 MOL1        -0.5519
      11    H5      20.204992   14.255570   23.562184 H          1 MOL1         0.3769
      12    C4      19.113736   14.253231   21.430458 C.3        1 MOL1         0.1018
      13    H6      19.137982   13.180838   21.666778 H          1 MOL1         0.0783
      14    C5      18.206616   14.508713   20.193276 C.3        1 MOL1         0.1043
      15    H7      18.384387   15.534419   19.843326 H          1 MOL1         0.0783
      16    O4      16.809932   14.353033   20.553469 O.3        1 MOL1        -0.3740
      17    C6      18.499240   13.554459   19.014269 C.3        1 MOL1         0.0138
      18    H8      19.521789   13.732151   18.655248 H          1 MOL1         0.0794
      19    H9      17.816408   13.794446   18.188220 H          1 MOL1         0.0794
      20    O5      18.344509   12.187111   19.405931 O.3        1 MOL1        -0.5486
      21    H10     17.425215   12.100908   19.743665 H          1 MOL1         0.3769
      22    C7      14.776302   20.305980   20.906488 C.3        1 MOL1         0.2972
      23    H11     14.085775   21.129741   20.684823 H          1 MOL1         0.0751
      24    O6      16.047703   20.787401   21.378817 O.3        1 MOL1        -0.3740
      25    C8      14.184741   19.374612   21.994090 C.3        1 MOL1         0.1003
      26    H12     13.231698   18.986957   21.611349 H          1 MOL1         0.0783
      27    O7      13.949946   20.088456   23.216861 O.3        1 MOL1        -0.5519
      28    H13     13.710543   19.391186   23.867956 H          1 MOL1         0.3769
      29    C9      15.116471   18.168346   22.266368 C.3        1 MOL1         0.1053
      30    H14     16.034131   18.546806   22.738571 H          1 MOL1         0.0783
      31    O8      14.450223   17.263832   23.154903 O.3        1 MOL1        -0.5519
      32    H15     15.156346   16.680123   23.528879 H          1 MOL1         0.3769
      33    C10     15.514555   17.447957   20.948073 C.3        1 MOL1         0.1018
      34    H16     14.657906   16.879217   20.562726 H          1 MOL1         0.0783
      35    C11     15.978219   18.449730   19.857404 C.3        1 MOL1         0.1043
      36    H17     16.948032   18.866591   20.155959 H          1 MOL1         0.0783
      37    O9      15.006201   19.515174   19.721485 O.3        1 MOL1        -0.3740
      38    C12     16.151610   17.793625   18.469659 C.3        1 MOL1         0.0138
      39    H18     16.889050   16.983628   18.544416 H          1 MOL1         0.0794
      40    H19     16.554158   18.542145   17.774254 H          1 MOL1         0.0794
      41    O10     14.906500   17.283676   17.983551 O.3        1 MOL1        -0.5486
      42    H20     14.269948   18.031216   18.034379 H          1 MOL1         0.3769
      43    C13     18.385344   24.155002   21.689517 C.3        1 MOL1         0.2972
      44    H21     18.806926   25.165143   21.766840 H          1 MOL1         0.0751
      45    O11     19.414769   23.156144   21.538900 O.3        1 MOL1        -0.3740
      46    C14     17.555367   23.834574   22.956594 C.3        1 MOL1         0.1003
      47    H22     16.736648   24.564187   23.006026 H          1 MOL1         0.0783
      48    O12     18.356240   23.942990   24.141746 O.3        1 MOL1        -0.5519
      49    H23     17.803734   23.546352   24.852124 H          1 MOL1         0.3769
      50    C15     16.930174   22.424523   22.863164 C.3        1 MOL1         0.1053
      51    H24     17.744162   21.692248   22.926079 H          1 MOL1         0.0783
      52    O13     16.015195   22.226577   23.947898 O.3        1 MOL1        -0.5519
      53    H25     15.489270   21.419174   23.726694 H          1 MOL1         0.3769
      54    C16     16.183504   22.212326   21.522466 C.3        1 MOL1         0.1018
      55    H26     15.208834   22.714117   21.586973 H          1 MOL1         0.0783
      56    C17     16.971079   22.735551   20.287766 C.3        1 MOL1         0.1043
      57    H27     17.796985   22.039853   20.088534 H          1 MOL1         0.0783
      58    O14     17.499431   24.058541   20.555281 O.3        1 MOL1        -0.3740
      59    C18     16.117201   22.829515   19.003591 C.3        1 MOL1         0.0138
      60    H28     15.794780   21.822625   18.709285 H          1 MOL1         0.0794
      61    H29     16.744906   23.219986   18.191385 H          1 MOL1         0.0794
      62    O15     14.980084   23.674979   19.200681 O.3        1 MOL1        -0.5486
      63    H30     15.333193   24.545976   19.489194 H          1 MOL1         0.3769
      64    C19     23.482196   22.677959   20.903803 C.3        1 MOL1         0.2972
      65    H31     24.539093   22.789556   20.629633 H          1 MOL1         0.0751
      66    O16     23.166641   21.310997   21.235479 O.3        1 MOL1        -0.3740
      67    C20     23.117322   23.601255   22.098651 C.3        1 MOL1         0.1003
      68    H32     23.289683   24.635022   21.773193 H          1 MOL1         0.0783
      69    O17     23.958675   23.328785   23.230177 O.3        1 MOL1        -0.5519
      70    H33     23.738235   22.414761   23.539485 H          1 MOL1         0.3769
      71    C21     21.612037   23.463206   22.454188 C.3        1 MOL1         0.1053
      72    H34     21.446073   22.450211   22.846056 H          1 MOL1         0.0783
      73    O18     21.228235   24.433909   23.436819 O.3        1 MOL1        -0.5519
      74    H35     20.301481   24.213856   23.702617 H          1 MOL1         0.3769
      75    C22     20.723393   23.649594   21.196751 C.3        1 MOL1         0.1018
      76    H36     20.702752   24.713523   20.925693 H          1 MOL1         0.0783
      77    C23     21.224457   22.837100   19.973717 C.3        1 MOL1         0.1043
      78    H37     21.024753   21.774457   20.155614 H          1 MOL1         0.0783
      79    O19     22.645839   23.054338   19.790730 O.3        1 MOL1        -0.3740
      80    C24     20.522343   23.228848   18.654908 C.3        1 MOL1         0.0138
      81    H38     19.442688   23.064324   18.758162 H          1 MOL1         0.0794
      82    H39     20.880682   22.566036   17.855951 H          1 MOL1         0.0794
      83    O20     20.782418   24.595238   18.320137 O.3        1 MOL1        -0.5486
      84    H40     21.760534   24.693979   18.328125 H          1 MOL1         0.3769
      85    C25     24.929028   17.652334   22.045801 C.3        1 MOL1         0.2972
      86    H41     25.601014   16.825876   22.309675 H          1 MOL1         0.0751
      87    O21     23.694167   17.171485   21.474730 O.3        1 MOL1        -0.3740
      88    C26     24.606839   18.502131   23.302374 C.3        1 MOL1         0.1003
      89    H42     25.554074   18.917768   23.669498 H          1 MOL1         0.0783
      90    O22     24.037405   17.667405   24.323926 O.3        1 MOL1        -0.5519
      91    H43     23.450429   18.233225   24.889387 H          1 MOL1         0.3769
      92    C27     23.681640   19.693189   22.937735 C.3        1 MOL1         0.1053
      93    H44     22.701039   19.292012   22.653920 H          1 MOL1         0.0783
      94    O23     23.545511   20.576378   24.059124 O.3        1 MOL1        -0.5519
      95    H45     22.948640   20.123043   24.710727 H          1 MOL1         0.3769
      96    C28     24.244398   20.495474   21.734672 C.3        1 MOL1         0.1018
      97    H46     25.086525   21.105571   22.087442 H          1 MOL1         0.0783
      98    C29     24.709789   19.582747   20.565636 C.3        1 MOL1         0.1043
      99    H47     23.818231   19.154442   20.088068 H          1 MOL1         0.0783
     100    O24     25.552574   18.520356   21.076381 O.3        1 MOL1        -0.3740
     101    C30     25.506928   20.329760   19.473138 C.3        1 MOL1         0.0138
     102    H48     24.847569   21.058935   18.983984 H          1 MOL1         0.0794
     103    H49     25.816938   19.606549   18.706964 H          1 MOL1         0.0794
     104    O25     26.650411   20.989209   20.024689 O.3        1 MOL1        -0.5486
     105    H50     27.181013   20.292100   20.470711 H          1 MOL1         0.3769
     106    C31     21.449835   13.789824   20.829030 C.3        1 MOL1         0.2972
     107    H51     21.023642   12.813193   20.565496 H          1 MOL1         0.0751
     108    O26     20.421760   14.763889   21.109163 O.3        1 MOL1        -0.3740
     109    C32     22.396709   13.678214   22.050690 C.3        1 MOL1         0.1003
     110    H52     23.234817   13.032796   21.756761 H          1 MOL1         0.0783
     111    O27     21.740313   13.102247   23.185941 O.3        1 MOL1        -0.5519
     112    H53     22.396688   13.174614   23.915567 H          1 MOL1         0.3769
     113    C33     22.972479   15.065495   22.419860 C.3        1 MOL1         0.1053
     114    H54     22.143241   15.694409   22.772555 H          1 MOL1         0.0783
     115    O28     23.938255   14.910262   23.465904 O.3        1 MOL1        -0.5519
     116    H55     24.054051   15.809348   23.863231 H          1 MOL1         0.3769
     117    C34     23.615238   15.761465   21.188383 C.3        1 MOL1         0.1018
     118    H56     24.607277   15.331403   20.996991 H          1 MOL1         0.0783
     119    C35     22.755763   15.636947   19.898925 C.3        1 MOL1         0.1043
     120    H57     21.911732   16.333118   19.979580 H          1 MOL1         0.0783
     121    O29     22.250115   14.288183   19.738496 O.3        1 MOL1        -0.3740
     122    C36     23.547663   15.994794   18.621549 C.3        1 MOL1         0.0138
     123    H58     23.933908   17.018685   18.714174 H          1 MOL1         0.0794
     124    H59     22.861373   15.976632   17.764434 H          1 MOL1         0.0794
     125    O30     24.626076   15.078270   18.411958 O.3        1 MOL1        -0.5486
     126    H60     24.225521   14.180462   18.427621 H          1 MOL1         0.3769
     127    C1      20.808638   18.534328   25.538444 C.2        1 MOL1         0.6145
     128    O1      20.061302   18.358639   26.480284 O.co2      1 MOL1        -0.6735
     129    O2      21.943073   18.962890   25.644139 O.co2      1 MOL1        -0.6735
     130    C2      20.289254   18.232241   24.136530 C.3        1 MOL1        -0.1985
     131    H1      19.518383   17.459436   24.226347 H          1 MOL1         0.0740
     132    H2      21.111945   17.804818   23.553919 H          1 MOL1         0.0740
     133    C3      19.703839   19.483945   23.434610 C.3        1 MOL1        -0.1882
     134    H3      18.869280   19.860755   24.041319 H          1 MOL1         0.0742
     135    H4      20.455631   20.284367   23.414729 H          1 MOL1         0.0742
     136    C4      19.195458   19.212097   21.999708 C.3        1 MOL1        -0.1880
     137    H5      18.626798   20.088064   21.668307 H          1 MOL1         0.0742
     138    H6      18.495444   18.368090   22.004394 H          1 MOL1         0.0742
     139    C5      20.328987   18.958982   20.982570 C.3        1 MOL1        -0.1880
     140    H7      21.081224   19.747106   21.089202 H          1 MOL1         0.0742
     141    H8      20.830892   18.008427   21.203009 H          1 MOL1         0.0742
     142    C6      19.803249   18.954266   19.531152 C.3        1 MOL1        -0.1856
     143    H9      19.160188   19.829516   19.367220 H          1 MOL1         0.0742
     144    H10     19.182236   18.063227   19.369369 H          1 MOL1         0.0742
     145    C7      20.950964   18.986996   18.502624 C.3        1 MOL1        -0.2871
     146    H11     21.570635   19.883593   18.633410 H          1 MOL1         0.0754
     147    H12     20.553104   18.995386   17.479919 H          1 MOL1         0.0754
     148    H13     21.597003   18.110189   18.606714 H          1 MOL1         0.0754
@<TRIPOS>BOND
    1     1     2    1
    2     1     3    1
    3     1     4    1
    4     4     5    1
    5     4     6    1
    6     6     7    1
    7     4     8    1
    8     8     9    1
    9     8    10    1
   10    10    11    1
   11     8    12    1
   12    12    13    1
   13    12    14    1
   14    14    15    1
   15     1    16    1
   16    14    16    1
   17    14    17    1
   18    17    18    1
   19    17    19    1
   20    17    20    1
   21    20    21    1
   22    22    23    1
   23    22    24    1
   24    22    25    1
   25    25    26    1
   26    25    27    1
   27    27    28    1
   28    25    29    1
   29    29    30    1
   30    29    31    1
   31    31    32    1
   32     3    33    1
   33    29    33    1
   34    33    34    1
   35    33    35    1
   36    35    36    1
   37    22    37    1
   38    35    37    1
   39    35    38    1
   40    38    39    1
   41    38    40    1
   42    38    41    1
   43    41    42    1
   44    43    44    1
   45    43    45    1
   46    43    46    1
   47    46    47    1
   48    46    48    1
   49    48    49    1
   50    46    50    1
   51    50    51    1
   52    50    52    1
   53    52    53    1
   54    24    54    1
   55    50    54    1
   56    54    55    1
   57    54    56    1
   58    56    57    1
   59    43    58    1
   60    56    58    1
   61    56    59    1
   62    59    60    1
   63    59    61    1
   64    59    62    1
   65    62    63    1
   66    64    65    1
   67    64    66    1
   68    64    67    1
   69    67    68    1
   70    67    69    1
   71    69    70    1
   72    67    71    1
   73    71    72    1
   74    71    73    1
   75    73    74    1
   76    45    75    1
   77    71    75    1
   78    75    76    1
   79    75    77    1
   80    77    78    1
   81    64    79    1
   82    77    79    1
   83    77    80    1
   84    80    81    1
   85    80    82    1
   86    80    83    1
   87    83    84    1
   88    85    86    1
   89    85    87    1
   90    85    88    1
   91    88    89    1
   92    88    90    1
   93    90    91    1
   94    88    92    1
   95    92    93    1
   96    92    94    1
   97    94    95    1
   98    66    96    1
   99    92    96    1
  100    96    97    1
  101    96    98    1
  102    98    99    1
  103    85   100    1
  104    98   100    1
  105    98   101    1
  106   101   102    1
  107   101   103    1
  108   101   104    1
  109   104   105    1
  110   106   107    1
  111    12   108    1
  112   106   108    1
  113   106   109    1
  114   109   110    1
  115   109   111    1
  116   111   112    1
  117   109   113    1
  118   113   114    1
  119   113   115    1
  120   115   116    1
  121    87   117    1
  122   113   117    1
  123   117   118    1
  124   117   119    1
  125   119   120    1
  126   106   121    1
  127   119   121    1
  128   119   122    1
  129   122   123    1
  130   122   124    1
  131   122   125    1
  132   125   126    1
  133   127   128    1
  134   127   129    2
  135   127   130    1
  136   130   131    1
  137   130   132    1
  138   130   133    1
  139   133   134    1
  140   133   135    1
  141   133   136    1
  142   136   137    1
  143   136   138    1
  144   136   139    1
  145   139   140    1
  146   139   141    1
  147   139   142    1
  148   142   143    1
  149   142   144    1
  150   142   145    1
  151   145   146    1
  152   145   147    1
  153   145   148    1
@<TRIPOS>SUBSTRUCTURE
       1 MOL1            1 RESIDUE      1      MOL     
       2 MOL1          148 RESIDUE      1      MOL     
@<SCITEGIC>MOL_PROPERTY
VM2 Rank
SciTegic.value.IntegerValue
2

@<SCITEGIC>MOL_PROPERTY
Conf_Id
SciTegic.value.IntegerValue
20913

@<SCITEGIC>MOL_PROPERTY
Probability
SciTegic.value.DoubleValue
2.30

@<SCITEGIC>MOL_PROPERTY
Sum Probability
SciTegic.value.DoubleValue
5.30

@<SCITEGIC>MOL_PROPERTY
Delta G
SciTegic.value.DoubleValue
0.157

@<SCITEGIC>MOL_PROPERTY
G
SciTegic.value.DoubleValue
497.185

@<SCITEGIC>MOL_PROPERTY
E
SciTegic.value.DoubleValue
305.150

@<SCITEGIC>MOL_PROPERTY
-TS
SciTegic.value.DoubleValue
192.035

@<SCITEGIC>MOL_PROPERTY
U+W
SciTegic.value.DoubleValue
174.590

@<SCITEGIC>MOL_PROPERTY
U
SciTegic.value.DoubleValue
247.949

@<SCITEGIC>MOL_PROPERTY
W
SciTegic.value.DoubleValue
-73.358

@<SCITEGIC>MOL_PROPERTY
W(PB)
SciTegic.value.DoubleValue
-79.540

@<SCITEGIC>MOL_PROPERTY
W(SA)
SciTegic.value.DoubleValue
6.182

@<SCITEGIC>MOL_PROPERTY
Valence
SciTegic.value.DoubleValue
150.255

@<SCITEGIC>MOL_PROPERTY
Coulomb
SciTegic.value.DoubleValue
123.026

@<SCITEGIC>MOL_PROPERTY
VdW
SciTegic.value.DoubleValue
-25.332

@<SCITEGIC>MOL_PROPERTY
VdW6
SciTegic.value.DoubleValue
-181.898

@<SCITEGIC>MOL_PROPERTY
VdW12
SciTegic.value.DoubleValue
156.566

@<SCITEGIC>MOL_PROPERTY
Bond
SciTegic.value.DoubleValue
4.561

@<SCITEGIC>MOL_PROPERTY
Angle
SciTegic.value.DoubleValue
11.630

@<SCITEGIC>MOL_PROPERTY
Pdih
SciTegic.value.DoubleValue
134.063

@<SCITEGIC>MOL_PROPERTY
Idih
SciTegic.value.DoubleValue
0.001

@<SCITEGIC>MOL_PROPERTY
Tether
SciTegic.value.DoubleValue
0.000

@<TRIPOS>MOLECULE
CD_guest-s21_vm2_rndm.mol2 : vm2 host+ligand conformer 3
         148         153           2
SMALL
USER_CHARGES
 
@<TRIPOS>ATOM
       1    C1      16.200739   15.044618   21.328838 C.3        1 MOL1         0.2972
       2    H1      15.114365   14.897707   21.282783 H          1 MOL1         0.0751
       3    O1      16.553608   16.442290   21.297417 O.3        1 MOL1        -0.3740
       4    C2      16.764064   14.412003   22.625625 C.3        1 MOL1         0.1003
       5    H2      16.544054   13.337191   22.586645 H          1 MOL1         0.0783
       6    O2      16.150620   14.974203   23.793463 O.3        1 MOL1        -0.5519
       7    H3      16.698280   14.645830   24.541825 H          1 MOL1         0.3769
       8    C3      18.298448   14.578071   22.702278 C.3        1 MOL1         0.1053
       9    H4      18.520359   15.643801   22.840453 H          1 MOL1         0.0783
      10    O3      18.803569   13.827291   23.813115 O.3        1 MOL1        -0.5519
      11    H5      19.787883   13.805417   23.717121 H          1 MOL1         0.3769
      12    C4      18.988596   14.101838   21.400288 C.3        1 MOL1         0.1018
      13    H6      19.016142   13.004147   21.403930 H          1 MOL1         0.0783
      14    C5      18.279237   14.606583   20.112423 C.3        1 MOL1         0.1043
      15    H7      18.489021   15.678438   20.000071 H          1 MOL1         0.0783
      16    O4      16.848273   14.395722   20.214288 O.3        1 MOL1        -0.3740
      17    C6      18.765004   13.896579   18.829438 C.3        1 MOL1         0.0138
      18    H8      19.831449   14.110515   18.681034 H          1 MOL1         0.0794
      19    H9      18.225169   14.314789   17.969355 H          1 MOL1         0.0794
      20    O5      18.550680   12.484305   18.910131 O.3        1 MOL1        -0.5486
      21    H10     17.590921   12.363497   19.085894 H          1 MOL1         0.3769
      22    C7      14.943763   20.249204   20.806920 C.3        1 MOL1         0.2972
      23    H11     14.301420   21.101792   20.551451 H          1 MOL1         0.0751
      24    O6      16.254511   20.681946   21.219413 O.3        1 MOL1        -0.3740
      25    C8      14.308151   19.400250   21.940330 C.3        1 MOL1         0.1003
      26    H12     13.331304   19.054312   21.578064 H          1 MOL1         0.0783
      27    O7      14.120144   20.167029   23.136904 O.3        1 MOL1        -0.5519
      28    H13     13.818643   19.512521   23.806699 H          1 MOL1         0.3769
      29    C9      15.166491   18.151702   22.253327 C.3        1 MOL1         0.1053
      30    H14     16.113697   18.488511   22.697580 H          1 MOL1         0.0783
      31    O8      14.464395   17.312691   23.178594 O.3        1 MOL1        -0.5519
      32    H15     15.074278   16.565577   23.401805 H          1 MOL1         0.3769
      33    C10     15.493470   17.357767   20.964231 C.3        1 MOL1         0.1018
      34    H16     14.590892   16.836452   20.618838 H          1 MOL1         0.0783
      35    C11     16.010329   18.274979   19.824985 C.3        1 MOL1         0.1043
      36    H17     17.010041   18.637130   20.094122 H          1 MOL1         0.0783
      37    O9      15.107554   19.396004   19.654511 O.3        1 MOL1        -0.3740
      38    C12     16.117068   17.549864   18.465371 C.3        1 MOL1         0.0138
      39    H18     16.806372   16.701393   18.562739 H          1 MOL1         0.0794
      40    H19     16.549138   18.241993   17.730352 H          1 MOL1         0.0794
      41    O10     14.834504   17.094560   18.024383 O.3        1 MOL1        -0.5486
      42    H20     14.247013   17.882632   18.040920 H          1 MOL1         0.3769
      43    C13     18.508912   24.077040   21.859347 C.3        1 MOL1         0.2972
      44    H21     18.904757   25.079765   22.064733 H          1 MOL1         0.0751
      45    O11     19.536198   23.179558   21.396757 O.3        1 MOL1        -0.3740
      46    C14     17.868624   23.480918   23.135738 C.3        1 MOL1         0.1003
      47    H22     17.029865   24.131025   23.416713 H          1 MOL1         0.0783
      48    O12     18.806408   23.430462   24.219725 O.3        1 MOL1        -0.5519
      49    H23     18.378013   22.849476   24.888168 H          1 MOL1         0.3769
      50    C15     17.301989   22.070835   22.854154 C.3        1 MOL1         0.1053
      51    H24     18.143875   21.396757   22.648248 H          1 MOL1         0.0783
      52    O13     16.572662   21.619520   24.001103 O.3        1 MOL1        -0.5519
      53    H25     15.916731   20.957456   23.674919 H          1 MOL1         0.3769
      54    C16     16.374370   22.062204   21.614474 C.3        1 MOL1         0.1018
      55    H26     15.404756   22.490919   21.902001 H          1 MOL1         0.0783
      56    C17     16.970074   22.845091   20.408453 C.3        1 MOL1         0.1043
      57    H27     17.788675   22.248149   19.984734 H          1 MOL1         0.0783
      58    O14     17.480237   24.130084   20.847744 O.3        1 MOL1        -0.3740
      59    C18     15.953672   23.108123   19.275006 C.3        1 MOL1         0.0138
      60    H28     15.651756   22.149237   18.833528 H          1 MOL1         0.0794
      61    H29     16.449524   23.687702   18.484776 H          1 MOL1         0.0794
      62    O15     14.806767   23.811731   19.760814 O.3        1 MOL1        -0.5486
      63    H30     15.143540   24.645191   20.158877 H          1 MOL1         0.3769
      64    C19     23.561935   22.814586   20.710091 C.3        1 MOL1         0.2972
      65    H31     24.618464   22.896186   20.423947 H          1 MOL1         0.0751
      66    O16     23.210415   21.454939   21.050238 O.3        1 MOL1        -0.3740
      67    C20     23.225376   23.765124   21.890938 C.3        1 MOL1         0.1003
      68    H32     23.365838   24.791899   21.529740 H          1 MOL1         0.0783
      69    O17     24.111328   23.546814   22.998770 O.3        1 MOL1        -0.5519
      70    H33     23.878538   22.663766   23.379223 H          1 MOL1         0.3769
      71    C21     21.734086   23.606772   22.293476 C.3        1 MOL1         0.1053
      72    H34     21.597062   22.592354   22.693027 H          1 MOL1         0.0783
      73    O18     21.368732   24.568156   23.290926 O.3        1 MOL1        -0.5519
      74    H35     20.531721   24.234450   23.698042 H          1 MOL1         0.3769
      75    C22     20.802973   23.772091   21.059993 C.3        1 MOL1         0.1018
      76    H36     20.702293   24.837244   20.812558 H          1 MOL1         0.0783
      77    C23     21.302536   23.011072   19.803635 C.3        1 MOL1         0.1043
      78    H37     21.099295   21.945743   19.957138 H          1 MOL1         0.0783
      79    O19     22.723755   23.216244   19.608247 O.3        1 MOL1        -0.3740
      80    C24     20.579874   23.443609   18.509034 C.3        1 MOL1         0.0138
      81    H38     19.500840   23.280276   18.628415 H          1 MOL1         0.0794
      82    H39     20.920878   22.803178   17.684658 H          1 MOL1         0.0794
      83    O20     20.840738   24.818210   18.210468 O.3        1 MOL1        -0.5486
      84    H40     21.819380   24.912584   18.202183 H          1 MOL1         0.3769
      85    C25     24.811484   17.786113   22.133251 C.3        1 MOL1         0.2972
      86    H41     25.455566   16.961102   22.462842 H          1 MOL1         0.0751
      87    O21     23.569872   17.299487   21.582693 O.3        1 MOL1        -0.3740
      88    C26     24.499138   18.726527   23.326329 C.3        1 MOL1         0.1003
      89    H42     25.456907   19.118559   23.692036 H          1 MOL1         0.0783
      90    O22     23.865743   17.983699   24.382478 O.3        1 MOL1        -0.5519
      91    H43     23.268970   18.599956   24.881811 H          1 MOL1         0.3769
      92    C27     23.641189   19.936799   22.872402 C.3        1 MOL1         0.1053
      93    H44     22.640661   19.570050   22.611525 H          1 MOL1         0.0783
      94    O23     23.556614   20.895644   23.934033 O.3        1 MOL1        -0.5519
      95    H45     22.961870   20.506474   24.626449 H          1 MOL1         0.3769
      96    C28     24.245379   20.630317   21.622172 C.3        1 MOL1         0.1018
      97    H46     25.112936   21.225385   21.936839 H          1 MOL1         0.0783
      98    C29     24.675375   19.619396   20.524686 C.3        1 MOL1         0.1043
      99    H47     23.768422   19.194433   20.074364 H          1 MOL1         0.0783
     100    O24     25.473900   18.564282   21.114276 O.3        1 MOL1        -0.3740
     101    C30     25.503123   20.259201   19.387983 C.3        1 MOL1         0.0138
     102    H48     24.877007   20.988261   18.856552 H          1 MOL1         0.0794
     103    H49     25.775861   19.476554   18.667377 H          1 MOL1         0.0794
     104    O25     26.678203   20.896406   19.897803 O.3        1 MOL1        -0.5486
     105    H50     27.172458   20.205057   20.392026 H          1 MOL1         0.3769
     106    C31     21.404422   13.786398   21.140025 C.3        1 MOL1         0.2972
     107    H51     21.059828   12.766258   20.928561 H          1 MOL1         0.0751
     108    O26     20.307118   14.677960   21.419277 O.3        1 MOL1        -0.3740
     109    C32     22.360672   13.797425   22.358741 C.3        1 MOL1         0.1003
     110    H52     23.224132   13.168433   22.105951 H          1 MOL1         0.0783
     111    O27     21.720504   13.273658   23.530566 O.3        1 MOL1        -0.5519
     112    H53     22.351630   13.463170   24.261116 H          1 MOL1         0.3769
     113    C33     22.877646   15.227923   22.640734 C.3        1 MOL1         0.1053
     114    H54     22.023650   15.836681   22.966841 H          1 MOL1         0.0783
     115    O28     23.858095   15.173987   23.683611 O.3        1 MOL1        -0.5519
     116    H55     23.930455   16.097458   24.032781 H          1 MOL1         0.3769
     117    C34     23.473040   15.878483   21.361503 C.3        1 MOL1         0.1018
     118    H56     24.455566   15.438635   21.144897 H          1 MOL1         0.0783
     119    C35     22.555887   15.691277   20.121607 C.3        1 MOL1         0.1043
     120    H57     21.675412   16.337254   20.235116 H          1 MOL1         0.0783
     121    O29     22.135436   14.308909   20.011736 O.3        1 MOL1        -0.3740
     122    C36     23.257335   16.070213   18.798510 C.3        1 MOL1         0.0138
     123    H58     23.595255   17.113084   18.856615 H          1 MOL1         0.0794
     124    H59     22.527035   16.004255   17.981081 H          1 MOL1         0.0794
     125    O30     24.368943   15.207214   18.541181 O.3        1 MOL1        -0.5486
     126    H60     24.019283   14.290522   18.605447 H          1 MOL1         0.3769
     127    C1      20.634337   19.494156   25.512232 C.2        1 MOL1         0.6145
     128    O1      21.847928   19.517325   25.601420 O.co2      1 MOL1        -0.6735
     129    O2      19.889505   19.337525   26.459334 O.co2      1 MOL1        -0.6735
     130    C2      20.018484   19.651776   24.125640 C.3        1 MOL1        -0.1985
     131    H1      20.596822   20.402620   23.576745 H          1 MOL1         0.0740
     132    H2      19.007535   20.052193   24.256234 H          1 MOL1         0.0740
     133    C3      19.956679   18.315837   23.342623 C.3        1 MOL1        -0.1882
     134    H3      20.957856   17.868241   23.292548 H          1 MOL1         0.0742
     135    H4      19.332573   17.613963   23.911844 H          1 MOL1         0.0742
     136    C4      19.375719   18.461903   21.916720 C.3        1 MOL1        -0.1880
     137    H5      18.454215   19.056872   21.947958 H          1 MOL1         0.0742
     138    H6      19.093155   17.465111   21.557960 H          1 MOL1         0.0742
     139    C5      20.374845   19.074362   20.910080 C.3        1 MOL1        -0.1880
     140    H7      20.637866   20.095116   21.213830 H          1 MOL1         0.0742
     141    H8      21.301870   18.490618   20.929755 H          1 MOL1         0.0742
     142    C6      19.808702   19.085961   19.473523 C.3        1 MOL1        -0.1856
     143    H9      19.026048   19.852956   19.395866 H          1 MOL1         0.0742
     144    H10     19.333841   18.120271   19.254162 H          1 MOL1         0.0742
     145    C7      20.905154   19.342642   18.419062 C.3        1 MOL1        -0.2871
     146    H11     20.467802   19.403695   17.414430 H          1 MOL1         0.0754
     147    H12     21.443388   20.276575   18.612877 H          1 MOL1         0.0754
     148    H13     21.638932   18.528403   18.417734 H          1 MOL1         0.0754
@<TRIPOS>BOND
    1     1     2    1
    2     1     3    1
    3     1     4    1
    4     4     5    1
    5     4     6    1
    6     6     7    1
    7     4     8    1
    8     8     9    1
    9     8    10    1
   10    10    11    1
   11     8    12    1
   12    12    13    1
   13    12    14    1
   14    14    15    1
   15     1    16    1
   16    14    16    1
   17    14    17    1
   18    17    18    1
   19    17    19    1
   20    17    20    1
   21    20    21    1
   22    22    23    1
   23    22    24    1
   24    22    25    1
   25    25    26    1
   26    25    27    1
   27    27    28    1
   28    25    29    1
   29    29    30    1
   30    29    31    1
   31    31    32    1
   32     3    33    1
   33    29    33    1
   34    33    34    1
   35    33    35    1
   36    35    36    1
   37    22    37    1
   38    35    37    1
   39    35    38    1
   40    38    39    1
   41    38    40    1
   42    38    41    1
   43    41    42    1
   44    43    44    1
   45    43    45    1
   46    43    46    1
   47    46    47    1
   48    46    48    1
   49    48    49    1
   50    46    50    1
   51    50    51    1
   52    50    52    1
   53    52    53    1
   54    24    54    1
   55    50    54    1
   56    54    55    1
   57    54    56    1
   58    56    57    1
   59    43    58    1
   60    56    58    1
   61    56    59    1
   62    59    60    1
   63    59    61    1
   64    59    62    1
   65    62    63    1
   66    64    65    1
   67    64    66    1
   68    64    67    1
   69    67    68    1
   70    67    69    1
   71    69    70    1
   72    67    71    1
   73    71    72    1
   74    71    73    1
   75    73    74    1
   76    45    75    1
   77    71    75    1
   78    75    76    1
   79    75    77    1
   80    77    78    1
   81    64    79    1
   82    77    79    1
   83    77    80    1
   84    80    81    1
   85    80    82    1
   86    80    83    1
   87    83    84    1
   88    85    86    1
   89    85    87    1
   90    85    88    1
   91    88    89    1
   92    88    90    1
   93    90    91    1
   94    88    92    1
   95    92    93    1
   96    92    94    1
   97    94    95    1
   98    66    96    1
   99    92    96    1
  100    96    97    1
  101    96    98    1
  102    98    99    1
  103    85   100    1
  104    98   100    1
  105    98   101    1
  106   101   102    1
  107   101   103    1
  108   101   104    1
  109   104   105    1
  110   106   107    1
  111    12   108    1
  112   106   108    1
  113   106   109    1
  114   109   110    1
  115   109   111    1
  116   111   112    1
  117   109   113    1
  118   113   114    1
  119   113   115    1
  120   115   116    1
  121    87   117    1
  122   113   117    1
  123   117   118    1
  124   117   119    1
  125   119   120    1
  126   106   121    1
  127   119   121    1
  128   119   122    1
  129   122   123    1
  130   122   124    1
  131   122   125    1
  132   125   126    1
  133   127   128    1
  134   127   129    2
  135   127   130    1
  136   130   131    1
  137   130   132    1
  138   130   133    1
  139   133   134    1
  140   133   135    1
  141   133   136    1
  142   136   137    1
  143   136   138    1
  144   136   139    1
  145   139   140    1
  146   139   141    1
  147   139   142    1
  148   142   143    1
  149   142   144    1
  150   142   145    1
  151   145   146    1
  152   145   147    1
  153   145   148    1
@<TRIPOS>SUBSTRUCTURE
       1 MOL1            1 RESIDUE      1      MOL     
       2 MOL1          148 RESIDUE      1      MOL     
@<SCITEGIC>MOL_PROPERTY
VM2 Rank
SciTegic.value.IntegerValue
3

@<SCITEGIC>MOL_PROPERTY
Conf_Id
SciTegic.value.IntegerValue
15579

@<SCITEGIC>MOL_PROPERTY
Probability
SciTegic.value.DoubleValue
2.22

@<SCITEGIC>MOL_PROPERTY
Sum Probability
SciTegic.value.DoubleValue
7.51

@<SCITEGIC>MOL_PROPERTY
Delta G
SciTegic.value.DoubleValue
0.180

@<SCITEGIC>MOL_PROPERTY
G
SciTegic.value.DoubleValue
497.208

@<SCITEGIC>MOL_PROPERTY
E
SciTegic.value.DoubleValue
304.978

@<SCITEGIC>MOL_PROPERTY
-TS
SciTegic.value.DoubleValue
192.230

@<SCITEGIC>MOL_PROPERTY
U+W
SciTegic.value.DoubleValue
174.418

@<SCITEGIC>MOL_PROPERTY
U
SciTegic.value.DoubleValue
247.406

@<SCITEGIC>MOL_PROPERTY
W
SciTegic.value.DoubleValue
-72.988

@<SCITEGIC>MOL_PROPERTY
W(PB)
SciTegic.value.DoubleValue
-79.180

@<SCITEGIC>MOL_PROPERTY
W(SA)
SciTegic.value.DoubleValue
6.193

@<SCITEGIC>MOL_PROPERTY
Valence
SciTegic.value.DoubleValue
150.787

@<SCITEGIC>MOL_PROPERTY
Coulomb
SciTegic.value.DoubleValue
122.357

@<SCITEGIC>MOL_PROPERTY
VdW
SciTegic.value.DoubleValue
-25.737

@<SCITEGIC>MOL_PROPERTY
VdW6
SciTegic.value.DoubleValue
-182.196

@<SCITEGIC>MOL_PROPERTY
VdW12
SciTegic.value.DoubleValue
156.459

@<SCITEGIC>MOL_PROPERTY
Bond
SciTegic.value.DoubleValue
4.518

@<SCITEGIC>MOL_PROPERTY
Angle
SciTegic.value.DoubleValue
11.598

@<SCITEGIC>MOL_PROPERTY
Pdih
SciTegic.value.DoubleValue
134.671

@<SCITEGIC>MOL_PROPERTY
Idih
SciTegic.value.DoubleValue
0.000

@<SCITEGIC>MOL_PROPERTY
Tether
SciTegic.value.DoubleValue
0.000

@<TRIPOS>MOLECULE
CD_guest-s21_vm2_rndm.mol2 : vm2 host+ligand conformer 4
         148         153           2
SMALL
USER_CHARGES
 
@<TRIPOS>ATOM
       1    C1      16.237376   15.046192   21.262641 C.3        1 MOL1         0.2972
       2    H1      15.153098   14.892617   21.194462 H          1 MOL1         0.0751
       3    O1      16.580840   16.446539   21.261454 O.3        1 MOL1        -0.3740
       4    C2      16.781540   14.396041   22.558823 C.3        1 MOL1         0.1003
       5    H2      16.569187   13.320680   22.498351 H          1 MOL1         0.0783
       6    O2      16.143618   14.935135   23.724454 O.3        1 MOL1        -0.5519
       7    H3      16.679413   14.597022   24.477072 H          1 MOL1         0.3769
       8    C3      18.313231   14.570155   22.666104 C.3        1 MOL1         0.1053
       9    H4      18.526268   15.634852   22.826243 H          1 MOL1         0.0783
      10    O3      18.801254   13.803791   23.773855 O.3        1 MOL1        -0.5519
      11    H5      19.787639   13.792402   23.699395 H          1 MOL1         0.3769
      12    C4      19.029558   14.119234   21.368912 C.3        1 MOL1         0.1018
      13    H6      19.063494   13.021829   21.354134 H          1 MOL1         0.0783
      14    C5      18.340399   14.641795   20.077359 C.3        1 MOL1         0.1043
      15    H7      18.545091   15.716735   19.987293 H          1 MOL1         0.0783
      16    O4      16.909296   14.420303   20.149357 O.3        1 MOL1        -0.3740
      17    C6      18.854793   13.957001   18.791862 C.3        1 MOL1         0.0138
      18    H8      19.923231   14.177493   18.669187 H          1 MOL1         0.0794
      19    H9      18.330726   14.388678   17.928692 H          1 MOL1         0.0794
      20    O5      18.644588   12.542723   18.842886 O.3        1 MOL1        -0.5486
      21    H10     17.682253   12.415380   18.998860 H          1 MOL1         0.3769
      22    C7      14.956357   20.250015   20.793606 C.3        1 MOL1         0.2972
      23    H11     14.312057   21.101808   20.540416 H          1 MOL1         0.0751
      24    O6      16.260456   20.685149   21.223909 O.3        1 MOL1        -0.3740
      25    C8      14.314204   19.386517   21.912188 C.3        1 MOL1         0.1003
      26    H12     13.342359   19.039907   21.537334 H          1 MOL1         0.0783
      27    O7      14.111779   20.140263   23.114727 O.3        1 MOL1        -0.5519
      28    H13     13.807482   19.477600   23.775158 H          1 MOL1         0.3769
      29    C9      15.175402   18.138769   22.220561 C.3        1 MOL1         0.1053
      30    H14     16.116294   18.475246   22.678260 H          1 MOL1         0.0783
      31    O8      14.467769   17.286420   23.129265 O.3        1 MOL1        -0.5519
      32    H15     15.076439   16.536386   23.345914 H          1 MOL1         0.3769
      33    C10     15.519629   17.360194   20.926653 C.3        1 MOL1         0.1018
      34    H16     14.623065   16.838370   20.566692 H          1 MOL1         0.0783
      35    C11     16.043677   18.291846   19.802689 C.3        1 MOL1         0.1043
      36    H17     17.038344   18.656413   20.086806 H          1 MOL1         0.0783
      37    O9      15.136494   19.409579   19.634290 O.3        1 MOL1        -0.3740
      38    C12     16.169193   17.581739   18.436775 C.3        1 MOL1         0.0138
      39    H18     16.862777   16.736571   18.532500 H          1 MOL1         0.0794
      40    H19     16.604614   18.284193   17.713625 H          1 MOL1         0.0794
      41    O10     14.894169   17.123245   17.977590 O.3        1 MOL1        -0.5486
      42    H20     14.301740   17.907571   17.995743 H          1 MOL1         0.3769
      43    C13     18.493682   24.085000   21.906961 C.3        1 MOL1         0.2972
      44    H21     18.882882   25.088068   22.123114 H          1 MOL1         0.0751
      45    O11     19.529812   23.195325   21.448944 O.3        1 MOL1        -0.3740
      46    C14     17.844734   23.477676   23.173451 C.3        1 MOL1         0.1003
      47    H22     17.001287   24.122730   23.452013 H          1 MOL1         0.0783
      48    O12     18.774334   23.423329   24.264374 O.3        1 MOL1        -0.5519
      49    H23     18.342803   22.836950   24.925984 H          1 MOL1         0.3769
      50    C15     17.285901   22.067516   22.877069 C.3        1 MOL1         0.1053
      51    H24     18.132184   21.398047   22.674371 H          1 MOL1         0.0783
      52    O13     16.547294   21.605513   24.013801 O.3        1 MOL1        -0.5519
      53    H25     15.899121   20.941077   23.677062 H          1 MOL1         0.3769
      54    C16     16.370260   22.063340   21.628607 C.3        1 MOL1         0.1018
      55    H26     15.396087   22.486037   21.909553 H          1 MOL1         0.0783
      56    C17     16.974292   22.856219   20.433400 C.3        1 MOL1         0.1043
      57    H27     17.799469   22.265274   20.014086 H          1 MOL1         0.0783
      58    O14     17.474683   24.140383   20.885821 O.3        1 MOL1        -0.3740
      59    C18     15.968000   23.122401   19.291694 C.3        1 MOL1         0.0138
      60    H28     15.674630   22.165217   18.840879 H          1 MOL1         0.0794
      61    H29     16.469117   23.709352   18.510271 H          1 MOL1         0.0794
      62    O15     14.813320   23.817857   19.770767 O.3        1 MOL1        -0.5486
      63    H30     15.142531   24.650145   20.177512 H          1 MOL1         0.3769
      64    C19     23.560341   22.872692   20.768376 C.3        1 MOL1         0.2972
      65    H31     24.615859   22.970395   20.485877 H          1 MOL1         0.0751
      66    O16     23.224082   21.504629   21.093182 O.3        1 MOL1        -0.3740
      67    C20     23.211085   23.814042   21.952043 C.3        1 MOL1         0.1003
      68    H32     23.335179   24.843713   21.592967 H          1 MOL1         0.0783
      69    O17     24.104936   23.607954   23.055337 O.3        1 MOL1        -0.5519
      70    H33     23.874645   22.729129   23.446661 H          1 MOL1         0.3769
      71    C21     21.722266   23.632670   22.353173 C.3        1 MOL1         0.1053
      72    H34     21.596948   22.612782   22.742347 H          1 MOL1         0.0783
      73    O18     21.343543   24.579779   23.359196 O.3        1 MOL1        -0.5519
      74    H35     20.506078   24.235880   23.756827 H          1 MOL1         0.3769
      75    C22     20.792621   23.799349   21.118656 C.3        1 MOL1         0.1018
      76    H36     20.684458   24.865552   20.878956 H          1 MOL1         0.0783
      77    C23     21.301998   23.052247   19.857508 C.3        1 MOL1         0.1043
      78    H37     21.108759   21.983769   20.002312 H          1 MOL1         0.0783
      79    O19     22.721839   23.272874   19.666864 O.3        1 MOL1        -0.3740
      80    C24     20.578444   23.487744   18.564402 C.3        1 MOL1         0.0138
      81    H38     19.500818   23.312835   18.679511 H          1 MOL1         0.0794
      82    H39     20.927974   22.857163   17.735990 H          1 MOL1         0.0794
      83    O20     20.826334   24.867179   18.277251 O.3        1 MOL1        -0.5486
      84    H40     21.803994   24.971161   18.270750 H          1 MOL1         0.3769
      85    C25     24.812475   17.838769   22.223242 C.3        1 MOL1         0.2972
      86    H41     25.458161   17.019510   22.563966 H          1 MOL1         0.0751
      87    O21     23.572731   17.344173   21.678689 O.3        1 MOL1        -0.3740
      88    C26     24.495465   18.791020   23.403802 C.3        1 MOL1         0.1003
      89    H42     25.451888   19.183126   23.772874 H          1 MOL1         0.0783
      90    O22     23.852698   18.057174   24.460823 O.3        1 MOL1        -0.5519
      91    H43     23.252998   18.678480   24.950161 H          1 MOL1         0.3769
      92    C27     23.644446   19.999635   22.931429 C.3        1 MOL1         0.1053
      93    H44     22.643033   19.633469   22.672514 H          1 MOL1         0.0783
      94    O23     23.559913   20.967616   23.983920 O.3        1 MOL1        -0.5519
      95    H45     22.957115   20.588016   24.675039 H          1 MOL1         0.3769
      96    C28     24.253230   20.676018   21.671658 C.3        1 MOL1         0.1018
      97    H46     25.131149   21.263686   21.971563 H          1 MOL1         0.0783
      98    C29     24.664416   19.644934   20.586575 C.3        1 MOL1         0.1043
      99    H47     23.753128   19.219357   20.145248 H          1 MOL1         0.0783
     100    O24     25.471154   18.607061   21.195898 O.3        1 MOL1        -0.3740
     101    C30     25.500559   20.268209   19.450364 C.3        1 MOL1         0.0138
     102    H48     26.435889   20.667759   19.864571 H          1 MOL1         0.0794
     103    H49     24.944345   21.102598   19.003405 H          1 MOL1         0.0794
     104    O25     25.772967   19.281439   18.453223 O.3        1 MOL1        -0.5486
     105    H50     26.092057   18.485588   18.935997 H          1 MOL1         0.3769
     106    C31     21.453711   13.819369   21.161918 C.3        1 MOL1         0.2972
     107    H51     21.121383   12.797807   20.938152 H          1 MOL1         0.0751
     108    O26     20.344009   14.702617   21.418849 O.3        1 MOL1        -0.3740
     109    C32     22.381110   13.832294   22.403159 C.3        1 MOL1         0.1003
     110    H52     23.258135   13.215837   22.166736 H          1 MOL1         0.0783
     111    O27     21.720952   13.293480   23.556702 O.3        1 MOL1        -0.5519
     112    H53     22.331453   13.489125   24.303069 H          1 MOL1         0.3769
     113    C33     22.872238   15.267532   22.704494 C.3        1 MOL1         0.1053
     114    H54     22.001752   15.865293   23.006247 H          1 MOL1         0.0783
     115    O28     23.823270   15.227507   23.775067 O.3        1 MOL1        -0.5519
     116    H55     23.889778   16.156190   24.111656 H          1 MOL1         0.3769
     117    C34     23.495692   15.925789   21.443854 C.3        1 MOL1         0.1018
     118    H56     24.487501   15.494839   21.253292 H          1 MOL1         0.0783
     119    C35     22.615293   15.737465   20.178024 C.3        1 MOL1         0.1043
     120    H57     21.727440   16.376969   20.268812 H          1 MOL1         0.0783
     121    O29     22.207639   14.352229   20.053044 O.3        1 MOL1        -0.3740
     122    C36     23.352394   16.126790   18.876951 C.3        1 MOL1         0.0138
     123    H58     23.668482   17.176208   18.941934 H          1 MOL1         0.0794
     124    H59     22.650748   16.045590   18.036200 H          1 MOL1         0.0794
     125    O30     24.488214   15.284517   18.658480 O.3        1 MOL1        -0.5486
     126    H60     24.152942   14.361546   18.703356 H          1 MOL1         0.3769
     127    C1      20.617669   19.533807   25.547458 C.2        1 MOL1         0.6145
     128    O1      21.828709   19.606555   25.644089 O.co2      1 MOL1        -0.6735
     129    O2      19.874683   19.337967   26.488706 O.co2      1 MOL1        -0.6735
     130    C2      20.003490   19.677546   24.158700 C.3        1 MOL1        -0.1985
     131    H1      20.568613   20.439373   23.611060 H          1 MOL1         0.0740
     132    H2      18.984424   20.057722   24.286167 H          1 MOL1         0.0740
     133    C3      19.970315   18.340336   23.375930 C.3        1 MOL1        -0.1882
     134    H3      20.979829   17.911286   23.332216 H          1 MOL1         0.0742
     135    H4      19.355485   17.626751   23.940834 H          1 MOL1         0.0742
     136    C4      19.396068   18.476294   21.946229 C.3        1 MOL1        -0.1880
     137    H5      18.465679   19.057706   21.970550 H          1 MOL1         0.0742
     138    H6      19.130419   17.475081   21.586718 H          1 MOL1         0.0742
     139    C5      20.393231   19.102248   20.945878 C.3        1 MOL1        -0.1880
     140    H7      20.640787   20.126505   21.250825 H          1 MOL1         0.0742
     141    H8      21.327811   18.530940   20.971601 H          1 MOL1         0.0742
     142    C6      19.837014   19.105784   19.505492 C.3        1 MOL1        -0.1856
     143    H9      19.046076   19.863490   19.421394 H          1 MOL1         0.0742
     144    H10     19.375436   18.134265   19.283695 H          1 MOL1         0.0742
     145    C7      20.937884   19.374686   18.458723 C.3        1 MOL1        -0.2871
     146    H11     20.507879   19.426249   17.450430 H          1 MOL1         0.0754
     147    H12     21.461322   20.316869   18.653441 H          1 MOL1         0.0754
     148    H13     21.684195   18.571566   18.465575 H          1 MOL1         0.0754
@<TRIPOS>BOND
    1     1     2    1
    2     1     3    1
    3     1     4    1
    4     4     5    1
    5     4     6    1
    6     6     7    1
    7     4     8    1
    8     8     9    1
    9     8    10    1
   10    10    11    1
   11     8    12    1
   12    12    13    1
   13    12    14    1
   14    14    15    1
   15     1    16    1
   16    14    16    1
   17    14    17    1
   18    17    18    1
   19    17    19    1
   20    17    20    1
   21    20    21    1
   22    22    23    1
   23    22    24    1
   24    22    25    1
   25    25    26    1
   26    25    27    1
   27    27    28    1
   28    25    29    1
   29    29    30    1
   30    29    31    1
   31    31    32    1
   32     3    33    1
   33    29    33    1
   34    33    34    1
   35    33    35    1
   36    35    36    1
   37    22    37    1
   38    35    37    1
   39    35    38    1
   40    38    39    1
   41    38    40    1
   42    38    41    1
   43    41    42    1
   44    43    44    1
   45    43    45    1
   46    43    46    1
   47    46    47    1
   48    46    48    1
   49    48    49    1
   50    46    50    1
   51    50    51    1
   52    50    52    1
   53    52    53    1
   54    24    54    1
   55    50    54    1
   56    54    55    1
   57    54    56    1
   58    56    57    1
   59    43    58    1
   60    56    58    1
   61    56    59    1
   62    59    60    1
   63    59    61    1
   64    59    62    1
   65    62    63    1
   66    64    65    1
   67    64    66    1
   68    64    67    1
   69    67    68    1
   70    67    69    1
   71    69    70    1
   72    67    71    1
   73    71    72    1
   74    71    73    1
   75    73    74    1
   76    45    75    1
   77    71    75    1
   78    75    76    1
   79    75    77    1
   80    77    78    1
   81    64    79    1
   82    77    79    1
   83    77    80    1
   84    80    81    1
   85    80    82    1
   86    80    83    1
   87    83    84    1
   88    85    86    1
   89    85    87    1
   90    85    88    1
   91    88    89    1
   92    88    90    1
   93    90    91    1
   94    88    92    1
   95    92    93    1
   96    92    94    1
   97    94    95    1
   98    66    96    1
   99    92    96    1
  100    96    97    1
  101    96    98    1
  102    98    99    1
  103    85   100    1
  104    98   100    1
  105    98   101    1
  106   101   102    1
  107   101   103    1
  108   101   104    1
  109   104   105    1
  110   106   107    1
  111    12   108    1
  112   106   108    1
  113   106   109    1
  114   109   110    1
  115   109   111    1
  116   111   112    1
  117   109   113    1
  118   113   114    1
  119   113   115    1
  120   115   116    1
  121    87   117    1
  122   113   117    1
  123   117   118    1
  124   117   119    1
  125   119   120    1
  126   106   121    1
  127   119   121    1
  128   119   122    1
  129   122   123    1
  130   122   124    1
  131   122   125    1
  132   125   126    1
  133   127   128    1
  134   127   129    2
  135   127   130    1
  136   130   131    1
  137   130   132    1
  138   130   133    1
  139   133   134    1
  140   133   135    1
  141   133   136    1
  142   136   137    1
  143   136   138    1
  144   136   139    1
  145   139   140    1
  146   139   141    1
  147   139   142    1
  148   142   143    1
  149   142   144    1
  150   142   145    1
  151   145   146    1
  152   145   147    1
  153   145   148    1
@<TRIPOS>SUBSTRUCTURE
       1 MOL1            1 RESIDUE      1      MOL     
       2 MOL1          148 RESIDUE      1      MOL     
@<SCITEGIC>MOL_PROPERTY
VM2 Rank
SciTegic.value.IntegerValue
4

@<SCITEGIC>MOL_PROPERTY
Conf_Id
SciTegic.value.IntegerValue
18668

@<SCITEGIC>MOL_PROPERTY
Probability
SciTegic.value.DoubleValue
1.78

@<SCITEGIC>MOL_PROPERTY
Sum Probability
SciTegic.value.DoubleValue
9.30

@<SCITEGIC>MOL_PROPERTY
Delta G
SciTegic.value.DoubleValue
0.310

@<SCITEGIC>MOL_PROPERTY
G
SciTegic.value.DoubleValue
497.338

@<SCITEGIC>MOL_PROPERTY
E
SciTegic.value.DoubleValue
305.359

@<SCITEGIC>MOL_PROPERTY
-TS
SciTegic.value.DoubleValue
191.979

@<SCITEGIC>MOL_PROPERTY
U+W
SciTegic.value.DoubleValue
174.800

@<SCITEGIC>MOL_PROPERTY
U
SciTegic.value.DoubleValue
247.661

@<SCITEGIC>MOL_PROPERTY
W
SciTegic.value.DoubleValue
-72.862

@<SCITEGIC>MOL_PROPERTY
W(PB)
SciTegic.value.DoubleValue
-78.985

@<SCITEGIC>MOL_PROPERTY
W(SA)
SciTegic.value.DoubleValue
6.123

@<SCITEGIC>MOL_PROPERTY
Valence
SciTegic.value.DoubleValue
151.443

@<SCITEGIC>MOL_PROPERTY
Coulomb
SciTegic.value.DoubleValue
122.432

@<SCITEGIC>MOL_PROPERTY
VdW
SciTegic.value.DoubleValue
-26.214

@<SCITEGIC>MOL_PROPERTY
VdW6
SciTegic.value.DoubleValue
-181.917

@<SCITEGIC>MOL_PROPERTY
VdW12
SciTegic.value.DoubleValue
155.703

@<SCITEGIC>MOL_PROPERTY
Bond
SciTegic.value.DoubleValue
4.489

@<SCITEGIC>MOL_PROPERTY
Angle
SciTegic.value.DoubleValue
11.589

@<SCITEGIC>MOL_PROPERTY
Pdih
SciTegic.value.DoubleValue
135.365

@<SCITEGIC>MOL_PROPERTY
Idih
SciTegic.value.DoubleValue
0.001

@<SCITEGIC>MOL_PROPERTY
Tether
SciTegic.value.DoubleValue
0.000

@<TRIPOS>MOLECULE
CD_guest-s21_vm2_rndm.mol2 : vm2 host+ligand conformer 5
         148         153           2
SMALL
USER_CHARGES
 
@<TRIPOS>ATOM
       1    C1      16.205816   15.070011   21.291345 C.3        1 MOL1         0.2972
       2    H1      15.120230   14.920330   21.236560 H          1 MOL1         0.0751
       3    O1      16.553761   16.469008   21.286852 O.3        1 MOL1        -0.3740
       4    C2      16.763715   14.417178   22.580525 C.3        1 MOL1         0.1003
       5    H2      16.544922   13.342951   22.523036 H          1 MOL1         0.0783
       6    O2      16.143194   14.960053   23.753869 O.3        1 MOL1        -0.5519
       7    H3      16.686188   14.619310   24.500052 H          1 MOL1         0.3769
       8    C3      18.297766   14.583075   22.668358 C.3        1 MOL1         0.1053
       9    H4      18.518412   15.646152   22.827594 H          1 MOL1         0.0783
      10    O3      18.797426   13.812439   23.768019 O.3        1 MOL1        -0.5519
      11    H5      19.782877   13.800162   23.681910 H          1 MOL1         0.3769
      12    C4      18.994942   14.130704   21.361467 C.3        1 MOL1         0.1018
      13    H6      19.020264   13.033110   21.344088 H          1 MOL1         0.0783
      14    C5      18.292769   14.660199   20.079885 C.3        1 MOL1         0.1043
      15    H7      18.500878   15.734548   19.990766 H          1 MOL1         0.0783
      16    O4      16.861846   14.443575   20.168998 O.3        1 MOL1        -0.3740
      17    C6      18.787732   13.977170   18.785825 C.3        1 MOL1         0.0138
      18    H8      19.855001   14.194637   18.649097 H          1 MOL1         0.0794
      19    H9      18.253444   14.412806   17.930948 H          1 MOL1         0.0794
      20    O5      18.573656   12.563430   18.835872 O.3        1 MOL1        -0.5486
      21    H10     17.613018   12.438761   19.003944 H          1 MOL1         0.3769
      22    C7      14.940563   20.278739   20.835512 C.3        1 MOL1         0.2972
      23    H11     14.298655   21.133968   20.587854 H          1 MOL1         0.0751
      24    O6      16.248720   20.706940   21.260701 O.3        1 MOL1        -0.3740
      25    C8      14.300572   19.414603   21.954893 C.3        1 MOL1         0.1003
      26    H12     13.326031   19.071730   21.583627 H          1 MOL1         0.0783
      27    O7      14.105833   20.166249   23.159956 O.3        1 MOL1        -0.5519
      28    H13     13.803716   19.502822   23.820627 H          1 MOL1         0.3769
      29    C9      15.159695   18.163659   22.256234 C.3        1 MOL1         0.1053
      30    H14     16.104306   18.496664   22.708770 H          1 MOL1         0.0783
      31    O8      14.455839   17.311255   23.167892 O.3        1 MOL1        -0.5519
      32    H15     15.065671   16.561329   23.381658 H          1 MOL1         0.3769
      33    C10     15.493921   17.386535   20.958878 C.3        1 MOL1         0.1018
      34    H16     14.593836   16.868033   20.602921 H          1 MOL1         0.0783
      35    C11     16.014802   18.318815   19.833748 C.3        1 MOL1         0.1043
      36    H17     17.012528   18.679166   20.112455 H          1 MOL1         0.0783
      37    O9      15.110912   19.440391   19.673217 O.3        1 MOL1        -0.3740
      38    C12     16.129385   17.611526   18.465437 C.3        1 MOL1         0.0138
      39    H18     16.820270   16.763524   18.554944 H          1 MOL1         0.0794
      40    H19     16.563197   18.314101   17.741412 H          1 MOL1         0.0794
      41    O10     14.849876   17.159013   18.012814 O.3        1 MOL1        -0.5486
      42    H20     14.260587   17.945546   18.036563 H          1 MOL1         0.3769
      43    C13     18.498837   24.101223   21.936161 C.3        1 MOL1         0.2972
      44    H21     18.888956   25.104053   22.151716 H          1 MOL1         0.0751
      45    O11     19.534556   23.208924   21.484113 O.3        1 MOL1        -0.3740
      46    C14     17.845586   23.498499   23.202468 C.3        1 MOL1         0.1003
      47    H22     17.003731   24.146726   23.478469 H          1 MOL1         0.0783
      48    O12     18.774173   23.443966   24.294290 O.3        1 MOL1        -0.5519
      49    H23     18.339959   22.861164   24.957325 H          1 MOL1         0.3769
      50    C15     17.283294   22.089306   22.908716 C.3        1 MOL1         0.1053
      51    H24     18.127820   21.416679   22.709191 H          1 MOL1         0.0783
      52    O13     16.541638   21.632728   24.045615 O.3        1 MOL1        -0.5519
      53    H25     15.892972   20.968047   23.710160 H          1 MOL1         0.3769
      54    C16     16.369889   22.086098   21.658668 C.3        1 MOL1         0.1018
      55    H26     15.398866   22.518577   21.935573 H          1 MOL1         0.0783
      56    C17     16.983411   22.868555   20.461219 C.3        1 MOL1         0.1043
      57    H27     17.808308   22.271492   20.049258 H          1 MOL1         0.0783
      58    O14     17.486437   24.154440   20.908186 O.3        1 MOL1        -0.3740
      59    C18     15.983202   23.130652   19.313263 C.3        1 MOL1         0.0138
      60    H28     15.685546   22.171180   18.870136 H          1 MOL1         0.0794
      61    H29     16.490765   23.707013   18.528196 H          1 MOL1         0.0794
      62    O15     14.831171   23.837608   19.781867 O.3        1 MOL1        -0.5486
      63    H30     15.164124   24.670178   20.184921 H          1 MOL1         0.3769
      64    C19     23.548811   22.866002   20.755349 C.3        1 MOL1         0.2972
      65    H31     24.603151   22.952534   20.462657 H          1 MOL1         0.0751
      66    O16     23.196848   21.498269   21.064493 O.3        1 MOL1        -0.3740
      67    C20     23.223207   23.789477   21.960064 C.3        1 MOL1         0.1003
      68    H32     23.354457   24.824161   21.618490 H          1 MOL1         0.0783
      69    O17     24.122369   23.555714   23.053600 O.3        1 MOL1        -0.5519
      70    H33     23.887940   22.670961   23.428748 H          1 MOL1         0.3769
      71    C21     21.736770   23.613841   22.371553 C.3        1 MOL1         0.1053
      72    H34     21.605960   22.589668   22.747453 H          1 MOL1         0.0783
      73    O18     21.372589   24.550533   23.392647 O.3        1 MOL1        -0.5519
      74    H35     20.529429   24.214317   23.784939 H          1 MOL1         0.3769
      75    C22     20.797788   23.807008   21.148829 C.3        1 MOL1         0.1018
      76    H36     20.697228   24.878405   20.929253 H          1 MOL1         0.0783
      77    C23     21.282340   23.084141   19.864753 C.3        1 MOL1         0.1043
      78    H37     21.069273   22.013840   19.969071 H          1 MOL1         0.0783
      79    O19     22.702304   23.301909   19.672217 O.3        1 MOL1        -0.3740
      80    C24     20.554355   23.608333   18.608795 C.3        1 MOL1         0.0138
      81    H38     20.791130   24.671903   18.472175 H          1 MOL1         0.0794
      82    H39     19.469724   23.524234   18.756743 H          1 MOL1         0.0794
      83    O20     20.949226   22.858582   17.459106 O.3        1 MOL1        -0.5486
      84    H40     21.930403   22.812502   17.489755 H          1 MOL1         0.3769
      85    C25     24.809228   17.818416   22.120845 C.3        1 MOL1         0.2972
      86    H41     25.460220   16.996310   22.444073 H          1 MOL1         0.0751
      87    O21     23.570925   17.325411   21.569083 O.3        1 MOL1        -0.3740
      88    C26     24.492150   18.749348   23.320395 C.3        1 MOL1         0.1003
      89    H42     25.448235   19.143880   23.687834 H          1 MOL1         0.0783
      90    O22     23.863811   17.996841   24.372703 O.3        1 MOL1        -0.5519
      91    H43     23.273509   18.609014   24.884489 H          1 MOL1         0.3769
      92    C27     23.627693   19.958741   22.876441 C.3        1 MOL1         0.1053
      93    H44     22.628673   19.589340   22.614330 H          1 MOL1         0.0783
      94    O23     23.540515   20.906559   23.947481 O.3        1 MOL1        -0.5519
      95    H45     22.952314   20.507264   24.639642 H          1 MOL1         0.3769
      96    C28     24.228847   20.664642   21.630864 C.3        1 MOL1         0.1018
      97    H46     25.098737   21.254404   21.948971 H          1 MOL1         0.0783
      98    C29     24.656466   19.662023   20.525145 C.3        1 MOL1         0.1043
      99    H47     23.748812   19.235631   20.077503 H          1 MOL1         0.0783
     100    O24     25.463368   18.607529   21.104765 O.3        1 MOL1        -0.3740
     101    C30     25.475105   20.312457   19.387882 C.3        1 MOL1         0.0138
     102    H48     24.843335   21.043389   18.865817 H          1 MOL1         0.0794
     103    H49     25.745671   19.535865   18.659960 H          1 MOL1         0.0794
     104    O25     26.651394   20.949737   19.894893 O.3        1 MOL1        -0.5486
     105    H50     27.150108   20.256716   20.382229 H          1 MOL1         0.3769
     106    C31     21.412092   13.811617   21.120358 C.3        1 MOL1         0.2972
     107    H51     21.067539   12.791555   20.908604 H          1 MOL1         0.0751
     108    O26     20.314603   14.703804   21.397542 O.3        1 MOL1        -0.3740
     109    C32     22.365723   13.821462   22.340819 C.3        1 MOL1         0.1003
     110    H52     23.229372   13.192240   22.089241 H          1 MOL1         0.0783
     111    O27     21.722972   13.296874   23.510887 O.3        1 MOL1        -0.5519
     112    H53     22.352151   13.486658   24.243034 H          1 MOL1         0.3769
     113    C33     22.883000   15.251335   22.624880 C.3        1 MOL1         0.1053
     114    H54     22.029212   15.860347   22.951296 H          1 MOL1         0.0783
     115    O28     23.862907   15.194394   23.668033 O.3        1 MOL1        -0.5519
     116    H55     23.935154   16.116948   24.019592 H          1 MOL1         0.3769
     117    C34     23.480266   15.903948   21.347570 C.3        1 MOL1         0.1018
     118    H56     24.465138   15.467625   21.134549 H          1 MOL1         0.0783
     119    C35     22.568792   15.714745   20.103725 C.3        1 MOL1         0.1043
     120    H57     21.688687   16.362378   20.211270 H          1 MOL1         0.0783
     121    O29     22.146718   14.332856   19.993931 O.3        1 MOL1        -0.3740
     122    C36     23.278473   16.089596   18.783778 C.3        1 MOL1         0.0138
     123    H58     23.621100   17.130948   18.842888 H          1 MOL1         0.0794
     124    H59     22.551987   16.026378   17.962740 H          1 MOL1         0.0794
     125    O30     24.387411   15.221293   18.532712 O.3        1 MOL1        -0.5486
     126    H60     24.033358   14.306287   18.597272 H          1 MOL1         0.3769
     127    C1      20.642266   19.503559   25.555626 C.2        1 MOL1         0.6145
     128    O1      21.857016   19.514728   25.630872 O.co2      1 MOL1        -0.6735
     129    O2      19.906531   19.353928   26.510950 O.co2      1 MOL1        -0.6735
     130    C2      20.012768   19.669248   24.176251 C.3        1 MOL1        -0.1985
     131    H1      20.596611   20.410455   23.620265 H          1 MOL1         0.0740
     132    H2      19.009661   20.085637   24.317160 H          1 MOL1         0.0740
     133    C3      19.922386   18.333642   23.395457 C.3        1 MOL1        -0.1882
     134    H3      20.913839   17.864330   23.347896 H          1 MOL1         0.0742
     135    H4      19.281892   17.645920   23.963917 H          1 MOL1         0.0742
     136    C4      19.348931   18.490454   21.967751 C.3        1 MOL1        -0.1880
     137    H5      18.438398   19.102098   21.994472 H          1 MOL1         0.0742
     138    H6      19.050312   17.499125   21.607625 H          1 MOL1         0.0742
     139    C5      20.363793   19.083490   20.965796 C.3        1 MOL1        -0.1880
     140    H7      20.635532   20.104806   21.261125 H          1 MOL1         0.0742
     141    H8      21.283283   18.488821   20.998838 H          1 MOL1         0.0742
     142    C6      19.814050   19.088832   19.523645 C.3        1 MOL1        -0.1856
     143    H9      19.034077   19.857181   19.432912 H          1 MOL1         0.0742
     144    H10     19.342200   18.122679   19.300576 H          1 MOL1         0.0742
     145    C7      20.925205   19.345354   18.485602 C.3        1 MOL1        -0.2871
     146    H11     20.502208   19.412006   17.475164 H          1 MOL1         0.0754
     147    H12     21.457804   20.280542   18.690692 H          1 MOL1         0.0754
     148    H13     21.659553   18.532161   18.492515 H          1 MOL1         0.0754
@<TRIPOS>BOND
    1     1     2    1
    2     1     3    1
    3     1     4    1
    4     4     5    1
    5     4     6    1
    6     6     7    1
    7     4     8    1
    8     8     9    1
    9     8    10    1
   10    10    11    1
   11     8    12    1
   12    12    13    1
   13    12    14    1
   14    14    15    1
   15     1    16    1
   16    14    16    1
   17    14    17    1
   18    17    18    1
   19    17    19    1
   20    17    20    1
   21    20    21    1
   22    22    23    1
   23    22    24    1
   24    22    25    1
   25    25    26    1
   26    25    27    1
   27    27    28    1
   28    25    29    1
   29    29    30    1
   30    29    31    1
   31    31    32    1
   32     3    33    1
   33    29    33    1
   34    33    34    1
   35    33    35    1
   36    35    36    1
   37    22    37    1
   38    35    37    1
   39    35    38    1
   40    38    39    1
   41    38    40    1
   42    38    41    1
   43    41    42    1
   44    43    44    1
   45    43    45    1
   46    43    46    1
   47    46    47    1
   48    46    48    1
   49    48    49    1
   50    46    50    1
   51    50    51    1
   52    50    52    1
   53    52    53    1
   54    24    54    1
   55    50    54    1
   56    54    55    1
   57    54    56    1
   58    56    57    1
   59    43    58    1
   60    56    58    1
   61    56    59    1
   62    59    60    1
   63    59    61    1
   64    59    62    1
   65    62    63    1
   66    64    65    1
   67    64    66    1
   68    64    67    1
   69    67    68    1
   70    67    69    1
   71    69    70    1
   72    67    71    1
   73    71    72    1
   74    71    73    1
   75    73    74    1
   76    45    75    1
   77    71    75    1
   78    75    76    1
   79    75    77    1
   80    77    78    1
   81    64    79    1
   82    77    79    1
   83    77    80    1
   84    80    81    1
   85    80    82    1
   86    80    83    1
   87    83    84    1
   88    85    86    1
   89    85    87    1
   90    85    88    1
   91    88    89    1
   92    88    90    1
   93    90    91    1
   94    88    92    1
   95    92    93    1
   96    92    94    1
   97    94    95    1
   98    66    96    1
   99    92    96    1
  100    96    97    1
  101    96    98    1
  102    98    99    1
  103    85   100    1
  104    98   100    1
  105    98   101    1
  106   101   102    1
  107   101   103    1
  108   101   104    1
  109   104   105    1
  110   106   107    1
  111    12   108    1
  112   106   108    1
  113   106   109    1
  114   109   110    1
  115   109   111    1
  116   111   112    1
  117   109   113    1
  118   113   114    1
  119   113   115    1
  120   115   116    1
  121    87   117    1
  122   113   117    1
  123   117   118    1
  124   117   119    1
  125   119   120    1
  126   106   121    1
  127   119   121    1
  128   119   122    1
  129   122   123    1
  130   122   124    1
  131   122   125    1
  132   125   126    1
  133   127   128    1
  134   127   129    2
  135   127   130    1
  136   130   131    1
  137   130   132    1
  138   130   133    1
  139   133   134    1
  140   133   135    1
  141   133   136    1
  142   136   137    1
  143   136   138    1
  144   136   139    1
  145   139   140    1
  146   139   141    1
  147   139   142    1
  148   142   143    1
  149   142   144    1
  150   142   145    1
  151   145   146    1
  152   145   147    1
  153   145   148    1
@<TRIPOS>SUBSTRUCTURE
       1 MOL1            1 RESIDUE      1      MOL     
       2 MOL1          148 RESIDUE      1      MOL     
@<SCITEGIC>MOL_PROPERTY
VM2 Rank
SciTegic.value.IntegerValue
5

@<SCITEGIC>MOL_PROPERTY
Conf_Id
SciTegic.value.IntegerValue
26526

@<SCITEGIC>MOL_PROPERTY
Probability
SciTegic.value.DoubleValue
1.74

@<SCITEGIC>MOL_PROPERTY
Sum Probability
SciTegic.value.DoubleValue
11.03

@<SCITEGIC>MOL_PROPERTY
Delta G
SciTegic.value.DoubleValue
0.324

@<SCITEGIC>MOL_PROPERTY
G
SciTegic.value.DoubleValue
497.353

@<SCITEGIC>MOL_PROPERTY
E
SciTegic.value.DoubleValue
305.190

@<SCITEGIC>MOL_PROPERTY
-TS
SciTegic.value.DoubleValue
192.163

@<SCITEGIC>MOL_PROPERTY
U+W
SciTegic.value.DoubleValue
174.631

@<SCITEGIC>MOL_PROPERTY
U
SciTegic.value.DoubleValue
247.978

@<SCITEGIC>MOL_PROPERTY
W
SciTegic.value.DoubleValue
-73.347

@<SCITEGIC>MOL_PROPERTY
W(PB)
SciTegic.value.DoubleValue
-79.482

@<SCITEGIC>MOL_PROPERTY
W(SA)
SciTegic.value.DoubleValue
6.135

@<SCITEGIC>MOL_PROPERTY
Valence
SciTegic.value.DoubleValue
151.127

@<SCITEGIC>MOL_PROPERTY
Coulomb
SciTegic.value.DoubleValue
123.034

@<SCITEGIC>MOL_PROPERTY
VdW
SciTegic.value.DoubleValue
-26.184

@<SCITEGIC>MOL_PROPERTY
VdW6
SciTegic.value.DoubleValue
-182.103

@<SCITEGIC>MOL_PROPERTY
VdW12
SciTegic.value.DoubleValue
155.919

@<SCITEGIC>MOL_PROPERTY
Bond
SciTegic.value.DoubleValue
4.496

@<SCITEGIC>MOL_PROPERTY
Angle
SciTegic.value.DoubleValue
11.457

@<SCITEGIC>MOL_PROPERTY
Pdih
SciTegic.value.DoubleValue
135.173

@<SCITEGIC>MOL_PROPERTY
Idih
SciTegic.value.DoubleValue
0.000

@<SCITEGIC>MOL_PROPERTY
Tether
SciTegic.value.DoubleValue
0.000

@<TRIPOS>MOLECULE
CD_guest-s21_vm2_rndm.mol2 : vm2 host+ligand conformer 6
         148         153           2
SMALL
USER_CHARGES
 
@<TRIPOS>ATOM
       1    C1      16.225200   15.061478   21.537210 C.3        1 MOL1         0.2972
       2    H1      15.138130   14.922216   21.592231 H          1 MOL1         0.0751
       3    O1      16.577927   16.449939   21.371803 O.3        1 MOL1        -0.3740
       4    C2      16.892892   14.517480   22.824365 C.3        1 MOL1         0.1003
       5    H2      16.668910   13.444120   22.878278 H          1 MOL1         0.0783
       6    O2      16.377840   15.162157   23.996979 O.3        1 MOL1        -0.5519
       7    H3      16.988507   14.886910   24.717451 H          1 MOL1         0.3769
       8    C3      18.428792   14.676035   22.763993 C.3        1 MOL1         0.1053
       9    H4      18.664251   15.745993   22.815190 H          1 MOL1         0.0783
      10    O3      19.017283   13.995690   23.878659 O.3        1 MOL1        -0.5519
      11    H5      19.979617   13.895368   23.675341 H          1 MOL1         0.3769
      12    C4      19.011402   14.111600   21.443741 C.3        1 MOL1         0.1018
      13    H6      19.053073   13.017005   21.521983 H          1 MOL1         0.0783
      14    C5      18.192875   14.523496   20.187794 C.3        1 MOL1         0.1043
      15    H7      18.390303   15.584157   19.983832 H          1 MOL1         0.0783
      16    O4      16.775948   14.326961   20.423890 O.3        1 MOL1        -0.3740
      17    C6      18.572764   13.725624   18.920787 C.3        1 MOL1         0.0138
      18    H8      19.618987   13.936899   18.663165 H          1 MOL1         0.0794
      19    H9      17.953226   14.076215   18.084464 H          1 MOL1         0.0794
      20    O5      18.387344   12.321247   19.121064 O.3        1 MOL1        -0.5486
      21    H10     17.446840   12.203867   19.382404 H          1 MOL1         0.3769
      22    C7      14.900862   20.225918   20.873152 C.3        1 MOL1         0.2972
      23    H11     14.244985   21.068692   20.619467 H          1 MOL1         0.0751
      24    O6      16.208872   20.674507   21.277583 O.3        1 MOL1        -0.3740
      25    C8      14.289718   19.377865   22.019540 C.3        1 MOL1         0.1003
      26    H12     13.315064   19.011963   21.671321 H          1 MOL1         0.0783
      27    O7      14.102968   20.155774   23.209328 O.3        1 MOL1        -0.5519
      28    H13     13.835139   19.501584   23.893559 H          1 MOL1         0.3769
      29    C9      15.174097   18.147982   22.335527 C.3        1 MOL1         0.1053
      30    H14     16.122660   18.507590   22.759213 H          1 MOL1         0.0783
      31    O8      14.502110   17.310924   23.284746 O.3        1 MOL1        -0.5519
      32    H15     15.151326   16.613395   23.552791 H          1 MOL1         0.3769
      33    C10     15.495652   17.343992   21.050384 C.3        1 MOL1         0.1018
      34    H16     14.599132   16.802145   20.721021 H          1 MOL1         0.0783
      35    C11     15.980172   18.257760   19.894426 C.3        1 MOL1         0.1043
      36    H17     16.977676   18.635341   20.146433 H          1 MOL1         0.0783
      37    O9      15.061627   19.365635   19.725956 O.3        1 MOL1        -0.3740
      38    C12     16.076047   17.521767   18.539867 C.3        1 MOL1         0.0138
      39    H18     16.771861   16.678665   18.636188 H          1 MOL1         0.0794
      40    H19     16.495127   18.210666   17.794301 H          1 MOL1         0.0794
      41    O10     14.791558   17.054273   18.117952 O.3        1 MOL1        -0.5486
      42    H20     14.198024   17.837623   18.141490 H          1 MOL1         0.3769
      43    C13     18.475975   24.124653   21.661555 C.3        1 MOL1         0.2972
      44    H21     18.838898   25.153395   21.780067 H          1 MOL1         0.0751
      45    O11     19.549949   23.208756   21.368549 O.3        1 MOL1        -0.3740
      46    C14     17.751583   23.664063   22.951629 C.3        1 MOL1         0.1003
      47    H22     16.894005   24.333314   23.099439 H          1 MOL1         0.0783
      48    O12     18.605838   23.742557   24.099840 O.3        1 MOL1        -0.5519
      49    H23     18.127850   23.236307   24.795401 H          1 MOL1         0.3769
      50    C15     17.205517   22.227326   22.795963 C.3        1 MOL1         0.1053
      51    H24     18.058127   21.539216   22.720881 H          1 MOL1         0.0783
      52    O13     16.404583   21.901958   23.938166 O.3        1 MOL1        -0.5519
      53    H25     15.808267   21.163155   23.664030 H          1 MOL1         0.3769
      54    C16     16.353727   22.087791   21.511442 C.3        1 MOL1         0.1018
      55    H26     15.384339   22.574005   21.685342 H          1 MOL1         0.0783
      56    C17     17.045213   22.711024   20.264847 C.3        1 MOL1         0.1043
      57    H27     17.892335   22.072019   19.982537 H          1 MOL1         0.0783
      58    O14     17.522928   24.044262   20.579426 O.3        1 MOL1        -0.3740
      59    C18     16.116631   22.824478   19.035501 C.3        1 MOL1         0.0138
      60    H28     15.833083   21.816544   18.705122 H          1 MOL1         0.0794
      61    H29     16.675749   23.290883   18.213345 H          1 MOL1         0.0794
      62    O15     14.948297   23.592149   19.339729 O.3        1 MOL1        -0.5486
      63    H30     15.268652   24.467644   19.651664 H          1 MOL1         0.3769
      64    C19     23.596996   22.812832   20.855184 C.3        1 MOL1         0.2972
      65    H31     24.668344   22.890125   20.629462 H          1 MOL1         0.0751
      66    O16     23.209772   21.444032   21.110710 O.3        1 MOL1        -0.3740
      67    C20     23.218355   23.706247   22.066168 C.3        1 MOL1         0.1003
      68    H32     23.410189   24.746165   21.772507 H          1 MOL1         0.0783
      69    O17     24.027996   23.396597   23.210754 O.3        1 MOL1        -0.5519
      70    H33     23.733495   22.508698   23.533904 H          1 MOL1         0.3769
      71    C21     21.704103   23.575498   22.378820 C.3        1 MOL1         0.1053
      72    H34     21.519362   22.556432   22.746802 H          1 MOL1         0.0783
      73    O18     21.317030   24.529317   23.375114 O.3        1 MOL1        -0.5519
      74    H35     20.414731   24.262891   23.679798 H          1 MOL1         0.3769
      75    C22     20.838842   23.797062   21.107692 C.3        1 MOL1         0.1018
      76    H36     20.763964   24.874061   20.907306 H          1 MOL1         0.0783
      77    C23     21.394371   23.095880   19.837351 C.3        1 MOL1         0.1043
      78    H37     21.173873   22.025184   19.905264 H          1 MOL1         0.0783
      79    O19     22.826368   23.287468   19.732631 O.3        1 MOL1        -0.3740
      80    C24     20.749029   23.620576   18.535723 C.3        1 MOL1         0.0138
      81    H38     19.662668   23.467591   18.588002 H          1 MOL1         0.0794
      82    H39     21.125418   23.027570   17.691581 H          1 MOL1         0.0794
      83    O20     21.043680   25.006610   18.337838 O.3        1 MOL1        -0.5486
      84    H40     22.022693   25.085300   18.383182 H          1 MOL1         0.3769
      85    C25     24.792514   17.738587   22.103447 C.3        1 MOL1         0.2972
      86    H41     25.425088   16.901543   22.424285 H          1 MOL1         0.0751
      87    O21     23.587189   17.277895   21.455332 O.3        1 MOL1        -0.3740
      88    C26     24.401975   18.616948   23.320903 C.3        1 MOL1         0.1003
      89    H42     25.329353   19.027154   23.741094 H          1 MOL1         0.0783
      90    O22     23.754326   17.814170   24.321791 O.3        1 MOL1        -0.5519
      91    H43     23.198315   18.412068   24.884765 H          1 MOL1         0.3769
      92    C27     23.523410   19.812316   22.866514 C.3        1 MOL1         0.1053
      93    H44     22.569022   19.419017   22.494945 H          1 MOL1         0.0783
      94    O23     23.301439   20.706133   23.966465 O.3        1 MOL1        -0.5519
      95    H45     22.683093   20.253772   24.598642 H          1 MOL1         0.3769
      96    C28     24.206712   20.590630   21.709180 C.3        1 MOL1         0.1018
      97    H46     25.040477   21.170491   22.126524 H          1 MOL1         0.0783
      98    C29     24.736537   19.653850   20.587935 C.3        1 MOL1         0.1043
      99    H47     23.873957   19.243518   20.046169 H          1 MOL1         0.0783
     100    O24     25.507934   18.575256   21.170732 O.3        1 MOL1        -0.3740
     101    C30     25.636918   20.370066   19.556454 C.3        1 MOL1         0.0138
     102    H48     25.038844   21.115307   19.015454 H          1 MOL1         0.0794
     103    H49     25.983153   19.633108   18.819410 H          1 MOL1         0.0794
     104    O25     26.753807   20.999748   20.191188 O.3        1 MOL1        -0.5486
     105    H50     27.227637   20.290476   20.679987 H          1 MOL1         0.3769
     106    C31     21.391350   13.797759   20.947872 C.3        1 MOL1         0.2972
     107    H51     21.021019   12.794096   20.702775 H          1 MOL1         0.0751
     108    O26     20.319736   14.694239   21.303222 O.3        1 MOL1        -0.3740
     109    C32     22.393358   13.744836   22.127741 C.3        1 MOL1         0.1003
     110    H52     23.243790   13.126865   21.811464 H          1 MOL1         0.0783
     111    O27     21.798562   13.167613   23.297766 O.3        1 MOL1        -0.5519
     112    H53     22.466432   13.305724   24.006960 H          1 MOL1         0.3769
     113    C33     22.925196   15.159742   22.456026 C.3        1 MOL1         0.1053
     114    H54     22.083068   15.756761   22.830064 H          1 MOL1         0.0783
     115    O28     23.929631   15.055478   23.471886 O.3        1 MOL1        -0.5519
     116    H55     23.973166   15.948781   23.895644 H          1 MOL1         0.3769
     117    C34     23.485771   15.864768   21.188321 C.3        1 MOL1         0.1018
     118    H56     24.462575   15.437438   20.925919 H          1 MOL1         0.0783
     119    C35     22.530451   15.730553   19.969430 C.3        1 MOL1         0.1043
     120    H57     21.660003   16.377297   20.136461 H          1 MOL1         0.0783
     121    O29     22.091412   14.357972   19.817644 O.3        1 MOL1        -0.3740
     122    C36     23.186617   16.163533   18.639836 C.3        1 MOL1         0.0138
     123    H58     23.513439   17.208375   18.724308 H          1 MOL1         0.0794
     124    H59     22.431878   16.117901   17.843442 H          1 MOL1         0.0794
     125    O30     24.298428   15.322670   18.317939 O.3        1 MOL1        -0.5486
     126    H60     23.958255   14.400693   18.348085 H          1 MOL1         0.3769
     127    C1      20.573587   18.734148   25.606209 C.2        1 MOL1         0.6145
     128    O1      19.748823   18.804208   26.495550 O.co2      1 MOL1        -0.6735
     129    O2      21.700371   19.190938   25.681568 O.co2      1 MOL1        -0.6735
     130    C2      20.183780   18.040057   24.306341 C.3        1 MOL1        -0.1985
     131    H1      19.354868   17.350824   24.505910 H          1 MOL1         0.0740
     132    H2      21.039794   17.432037   23.996996 H          1 MOL1         0.0740
     133    C3      19.798687   19.035983   23.184802 C.3        1 MOL1        -0.1882
     134    H3      18.795315   19.436449   23.380699 H          1 MOL1         0.0742
     135    H4      20.485457   19.892346   23.208555 H          1 MOL1         0.0742
     136    C4      19.846591   18.378887   21.789244 C.3        1 MOL1        -0.1880
     137    H5      19.057052   17.622694   21.708709 H          1 MOL1         0.0742
     138    H6      20.805556   17.861726   21.660815 H          1 MOL1         0.0742
     139    C5      19.681512   19.421201   20.668190 C.3        1 MOL1        -0.1880
     140    H7      18.729000   19.947163   20.800375 H          1 MOL1         0.0742
     141    H8      20.473982   20.172685   20.760290 H          1 MOL1         0.0742
     142    C6      19.742128   18.776866   19.268024 C.3        1 MOL1        -0.1856
     143    H9      19.050647   17.926063   19.217932 H          1 MOL1         0.0742
     144    H10     20.749653   18.377567   19.091705 H          1 MOL1         0.0742
     145    C7      19.387632   19.790366   18.162273 C.3        1 MOL1        -0.2871
     146    H11     20.092317   20.630694   18.162401 H          1 MOL1         0.0754
     147    H12     18.374992   20.189052   18.305427 H          1 MOL1         0.0754
     148    H13     19.428509   19.314061   17.174417 H          1 MOL1         0.0754
@<TRIPOS>BOND
    1     1     2    1
    2     1     3    1
    3     1     4    1
    4     4     5    1
    5     4     6    1
    6     6     7    1
    7     4     8    1
    8     8     9    1
    9     8    10    1
   10    10    11    1
   11     8    12    1
   12    12    13    1
   13    12    14    1
   14    14    15    1
   15     1    16    1
   16    14    16    1
   17    14    17    1
   18    17    18    1
   19    17    19    1
   20    17    20    1
   21    20    21    1
   22    22    23    1
   23    22    24    1
   24    22    25    1
   25    25    26    1
   26    25    27    1
   27    27    28    1
   28    25    29    1
   29    29    30    1
   30    29    31    1
   31    31    32    1
   32     3    33    1
   33    29    33    1
   34    33    34    1
   35    33    35    1
   36    35    36    1
   37    22    37    1
   38    35    37    1
   39    35    38    1
   40    38    39    1
   41    38    40    1
   42    38    41    1
   43    41    42    1
   44    43    44    1
   45    43    45    1
   46    43    46    1
   47    46    47    1
   48    46    48    1
   49    48    49    1
   50    46    50    1
   51    50    51    1
   52    50    52    1
   53    52    53    1
   54    24    54    1
   55    50    54    1
   56    54    55    1
   57    54    56    1
   58    56    57    1
   59    43    58    1
   60    56    58    1
   61    56    59    1
   62    59    60    1
   63    59    61    1
   64    59    62    1
   65    62    63    1
   66    64    65    1
   67    64    66    1
   68    64    67    1
   69    67    68    1
   70    67    69    1
   71    69    70    1
   72    67    71    1
   73    71    72    1
   74    71    73    1
   75    73    74    1
   76    45    75    1
   77    71    75    1
   78    75    76    1
   79    75    77    1
   80    77    78    1
   81    64    79    1
   82    77    79    1
   83    77    80    1
   84    80    81    1
   85    80    82    1
   86    80    83    1
   87    83    84    1
   88    85    86    1
   89    85    87    1
   90    85    88    1
   91    88    89    1
   92    88    90    1
   93    90    91    1
   94    88    92    1
   95    92    93    1
   96    92    94    1
   97    94    95    1
   98    66    96    1
   99    92    96    1
  100    96    97    1
  101    96    98    1
  102    98    99    1
  103    85   100    1
  104    98   100    1
  105    98   101    1
  106   101   102    1
  107   101   103    1
  108   101   104    1
  109   104   105    1
  110   106   107    1
  111    12   108    1
  112   106   108    1
  113   106   109    1
  114   109   110    1
  115   109   111    1
  116   111   112    1
  117   109   113    1
  118   113   114    1
  119   113   115    1
  120   115   116    1
  121    87   117    1
  122   113   117    1
  123   117   118    1
  124   117   119    1
  125   119   120    1
  126   106   121    1
  127   119   121    1
  128   119   122    1
  129   122   123    1
  130   122   124    1
  131   122   125    1
  132   125   126    1
  133   127   128    1
  134   127   129    2
  135   127   130    1
  136   130   131    1
  137   130   132    1
  138   130   133    1
  139   133   134    1
  140   133   135    1
  141   133   136    1
  142   136   137    1
  143   136   138    1
  144   136   139    1
  145   139   140    1
  146   139   141    1
  147   139   142    1
  148   142   143    1
  149   142   144    1
  150   142   145    1
  151   145   146    1
  152   145   147    1
  153   145   148    1
@<TRIPOS>SUBSTRUCTURE
       1 MOL1            1 RESIDUE      1      MOL     
       2 MOL1          148 RESIDUE      1      MOL     
@<SCITEGIC>MOL_PROPERTY
VM2 Rank
SciTegic.value.IntegerValue
6

@<SCITEGIC>MOL_PROPERTY
Conf_Id
SciTegic.value.IntegerValue
20559

@<SCITEGIC>MOL_PROPERTY
Probability
SciTegic.value.DoubleValue
1.63

@<SCITEGIC>MOL_PROPERTY
Sum Probability
SciTegic.value.DoubleValue
12.66

@<SCITEGIC>MOL_PROPERTY
Delta G
SciTegic.value.DoubleValue
0.363

@<SCITEGIC>MOL_PROPERTY
G
SciTegic.value.DoubleValue
497.391

@<SCITEGIC>MOL_PROPERTY
E
SciTegic.value.DoubleValue
305.187

@<SCITEGIC>MOL_PROPERTY
-TS
SciTegic.value.DoubleValue
192.204

@<SCITEGIC>MOL_PROPERTY
U+W
SciTegic.value.DoubleValue
174.628

@<SCITEGIC>MOL_PROPERTY
U
SciTegic.value.DoubleValue
247.957

@<SCITEGIC>MOL_PROPERTY
W
SciTegic.value.DoubleValue
-73.329

@<SCITEGIC>MOL_PROPERTY
W(PB)
SciTegic.value.DoubleValue
-79.472

@<SCITEGIC>MOL_PROPERTY
W(SA)
SciTegic.value.DoubleValue
6.142

@<SCITEGIC>MOL_PROPERTY
Valence
SciTegic.value.DoubleValue
149.860

@<SCITEGIC>MOL_PROPERTY
Coulomb
SciTegic.value.DoubleValue
122.766

@<SCITEGIC>MOL_PROPERTY
VdW
SciTegic.value.DoubleValue
-24.668

@<SCITEGIC>MOL_PROPERTY
VdW6
SciTegic.value.DoubleValue
-179.900

@<SCITEGIC>MOL_PROPERTY
VdW12
SciTegic.value.DoubleValue
155.232

@<SCITEGIC>MOL_PROPERTY
Bond
SciTegic.value.DoubleValue
4.550

@<SCITEGIC>MOL_PROPERTY
Angle
SciTegic.value.DoubleValue
11.190

@<SCITEGIC>MOL_PROPERTY
Pdih
SciTegic.value.DoubleValue
134.121

@<SCITEGIC>MOL_PROPERTY
Idih
SciTegic.value.DoubleValue
0.000

@<SCITEGIC>MOL_PROPERTY
Tether
SciTegic.value.DoubleValue
0.000

@<TRIPOS>MOLECULE
CD_guest-s21_vm2_rndm.mol2 : vm2 host+ligand conformer 7
         148         153           2
SMALL
USER_CHARGES
 
@<TRIPOS>ATOM
       1    C1      16.184941   15.024528   21.401733 C.3        1 MOL1         0.2972
       2    H1      15.098205   14.875462   21.375320 H          1 MOL1         0.0751
       3    O1      16.534396   16.422085   21.356697 O.3        1 MOL1        -0.3740
       4    C2      16.770195   14.400303   22.692358 C.3        1 MOL1         0.1003
       5    H2      16.550735   13.325051   22.663536 H          1 MOL1         0.0783
       6    O2      16.174057   14.969619   23.865734 O.3        1 MOL1        -0.5519
       7    H3      16.733515   14.646818   24.607756 H          1 MOL1         0.3769
       8    C3      18.305242   14.568450   22.743834 C.3        1 MOL1         0.1053
       9    H4      18.528697   15.634934   22.873783 H          1 MOL1         0.0783
      10    O3      18.826510   13.822603   23.850375 O.3        1 MOL1        -0.5519
      11    H5      19.809126   13.797555   23.739088 H          1 MOL1         0.3769
      12    C4      18.975192   14.087341   21.433000 C.3        1 MOL1         0.1018
      13    H6      19.002486   12.989653   21.439517 H          1 MOL1         0.0783
      14    C5      18.245485   14.588218   20.154718 C.3        1 MOL1         0.1043
      15    H7      18.452294   15.660337   20.036845 H          1 MOL1         0.0783
      16    O4      16.815525   14.374840   20.277864 O.3        1 MOL1        -0.3740
      17    C6      18.715108   13.877151   18.866380 C.3        1 MOL1         0.0138
      18    H8      19.779956   14.090290   18.705355 H          1 MOL1         0.0794
      19    H9      18.165858   14.295568   18.012374 H          1 MOL1         0.0794
      20    O5      18.500800   12.465055   18.950795 O.3        1 MOL1        -0.5486
      21    H10     17.543900   12.344597   19.141511 H          1 MOL1         0.3769
      22    C7      14.902674   20.216669   20.851515 C.3        1 MOL1         0.2972
      23    H11     14.253669   21.063317   20.593129 H          1 MOL1         0.0751
      24    O6      16.214708   20.659363   21.249204 O.3        1 MOL1        -0.3740
      25    C8      14.282336   19.374869   21.998335 C.3        1 MOL1         0.1003
      26    H12     13.304104   19.020478   21.648211 H          1 MOL1         0.0783
      27    O7      14.100784   20.150131   23.190337 O.3        1 MOL1        -0.5519
      28    H13     13.807127   19.500005   23.867789 H          1 MOL1         0.3769
      29    C9      15.151491   18.134033   22.312022 C.3        1 MOL1         0.1053
      30    H14     16.099710   18.479284   22.747727 H          1 MOL1         0.0783
      31    O8      14.461524   17.294114   23.245504 O.3        1 MOL1        -0.5519
      32    H15     15.080314   16.555457   23.472466 H          1 MOL1         0.3769
      33    C10     15.473853   17.335879   21.024258 C.3        1 MOL1         0.1018
      34    H16     14.570238   16.813259   20.683214 H          1 MOL1         0.0783
      35    C11     15.983193   18.246138   19.877345 C.3        1 MOL1         0.1043
      36    H17     16.985295   18.615084   20.129376 H          1 MOL1         0.0783
      37    O9      15.059879   19.350352   19.707380 O.3        1 MOL1        -0.3740
      38    C12     16.060909   17.495574   18.531647 C.3        1 MOL1         0.0138
      39    H18     15.053873   17.168495   18.240511 H          1 MOL1         0.0794
      40    H19     16.682114   16.598855   18.649962 H          1 MOL1         0.0794
      41    O10     16.621091   18.344991   17.529251 O.3        1 MOL1        -0.5486
      42    H20     16.126142   19.191830   17.583919 H          1 MOL1         0.3769
      43    C13     18.467518   24.062926   21.844857 C.3        1 MOL1         0.2972
      44    H21     18.863397   25.068117   22.037729 H          1 MOL1         0.0751
      45    O11     19.493810   23.160865   21.389224 O.3        1 MOL1        -0.3740
      46    C14     17.832068   23.480598   23.129939 C.3        1 MOL1         0.1003
      47    H22     16.993377   24.132798   23.406222 H          1 MOL1         0.0783
      48    O12     18.773350   23.443494   24.211434 O.3        1 MOL1        -0.5519
      49    H23     18.347531   22.869724   24.887713 H          1 MOL1         0.3769
      50    C15     17.266406   22.066715   22.866046 C.3        1 MOL1         0.1053
      51    H24     18.108547   21.391666   22.664460 H          1 MOL1         0.0783
      52    O13     16.542916   21.627081   24.021161 O.3        1 MOL1        -0.5519
      53    H25     15.888353   20.958431   23.705654 H          1 MOL1         0.3769
      54    C16     16.333907   22.043532   21.629927 C.3        1 MOL1         0.1018
      55    H26     15.364682   22.473955   21.916126 H          1 MOL1         0.0783
      56    C17     16.924510   22.813620   20.413297 C.3        1 MOL1         0.1043
      57    H27     17.741966   22.212535   19.993126 H          1 MOL1         0.0783
      58    O14     17.435257   24.103886   20.836322 O.3        1 MOL1        -0.3740
      59    C18     15.903414   23.062866   19.281039 C.3        1 MOL1         0.0138
      60    H28     15.599666   22.098658   18.852805 H          1 MOL1         0.0794
      61    H29     16.395923   23.632728   18.481704 H          1 MOL1         0.0794
      62    O15     14.758470   23.772218   19.763080 O.3        1 MOL1        -0.5486
      63    H30     15.096943   24.610053   20.150358 H          1 MOL1         0.3769
      64    C19     23.517018   22.793262   20.680726 C.3        1 MOL1         0.2972
      65    H31     24.571424   22.876009   20.387192 H          1 MOL1         0.0751
      66    O16     23.172005   21.435204   21.032806 O.3        1 MOL1        -0.3740
      67    C20     23.185889   23.749897   21.858159 C.3        1 MOL1         0.1003
      68    H32     23.324441   24.774825   21.491046 H          1 MOL1         0.0783
      69    O17     24.077296   23.536845   22.962729 O.3        1 MOL1        -0.5519
      70    H33     23.850531   22.653048   23.345162 H          1 MOL1         0.3769
      71    C21     21.696786   23.593561   22.269547 C.3        1 MOL1         0.1053
      72    H34     21.562552   22.581796   22.676732 H          1 MOL1         0.0783
      73    O18     21.336332   24.561748   23.262221 O.3        1 MOL1        -0.5519
      74    H35     20.499359   24.232900   23.673367 H          1 MOL1         0.3769
      75    C22     20.758764   23.750019   21.040239 C.3        1 MOL1         0.1018
      76    H36     20.657374   24.813226   20.784870 H          1 MOL1         0.0783
      77    C23     21.251023   22.978621   19.787564 C.3        1 MOL1         0.1043
      78    H37     21.050086   21.914541   19.951950 H          1 MOL1         0.0783
      79    O19     22.670610   23.184823   19.581480 O.3        1 MOL1        -0.3740
      80    C24     20.519425   23.398139   18.493728 C.3        1 MOL1         0.0138
      81    H38     19.441454   23.234133   18.621392 H          1 MOL1         0.0794
      82    H39     20.856177   22.750540   17.673192 H          1 MOL1         0.0794
      83    O20     20.776231   24.770370   18.180965 O.3        1 MOL1        -0.5486
      84    H40     21.754652   24.866093   18.165908 H          1 MOL1         0.3769
      85    C25     24.797385   17.774479   22.106957 C.3        1 MOL1         0.2972
      86    H41     25.447314   16.952317   22.432162 H          1 MOL1         0.0751
      87    O21     23.553266   17.282481   21.567044 O.3        1 MOL1        -0.3740
      88    C26     24.491600   18.715514   23.301458 C.3        1 MOL1         0.1003
      89    H42     25.451004   19.111224   23.658815 H          1 MOL1         0.0783
      90    O22     23.869011   17.972283   24.363799 O.3        1 MOL1        -0.5519
      91    H43     23.273864   18.587229   24.866714 H          1 MOL1         0.3769
      92    C27     23.625813   19.922265   22.853290 C.3        1 MOL1         0.1053
      93    H44     22.624304   19.551140   22.602967 H          1 MOL1         0.0783
      94    O23     23.547757   20.883209   23.913645 O.3        1 MOL1        -0.5519
      95    H45     22.961081   20.493277   24.612463 H          1 MOL1         0.3769
      96    C28     24.215617   20.615579   21.596112 C.3        1 MOL1         0.1018
      97    H46     25.083591   21.214705   21.901799 H          1 MOL1         0.0783
      98    C29     24.639649   19.604301   20.496626 C.3        1 MOL1         0.1043
      99    H47     23.730338   19.174748   20.055500 H          1 MOL1         0.0783
     100    O24     25.447929   18.553756   21.081190 O.3        1 MOL1        -0.3740
     101    C30     25.454258   20.244893   19.350920 C.3        1 MOL1         0.0138
     102    H48     24.820083   20.969680   18.823219 H          1 MOL1         0.0794
     103    H49     25.724036   19.461608   18.629898 H          1 MOL1         0.0794
     104    O25     26.630990   20.888686   19.848512 O.3        1 MOL1        -0.5486
     105    H50     27.132829   20.200832   20.339948 H          1 MOL1         0.3769
     106    C31     21.388340   13.768617   21.145223 C.3        1 MOL1         0.2972
     107    H51     21.040593   12.748569   20.938548 H          1 MOL1         0.0751
     108    O26     20.294243   14.663119   21.428618 O.3        1 MOL1        -0.3740
     109    C32     22.354187   13.781394   22.356423 C.3        1 MOL1         0.1003
     110    H52     23.216468   13.153564   22.096778 H          1 MOL1         0.0783
     111    O27     21.725448   13.257182   23.533963 O.3        1 MOL1        -0.5519
     112    H53     22.363056   13.447746   24.258648 H          1 MOL1         0.3769
     113    C33     22.871616   15.212687   22.632956 C.3        1 MOL1         0.1053
     114    H54     22.019364   15.821880   22.963128 H          1 MOL1         0.0783
     115    O28     23.858712   15.161390   23.669710 O.3        1 MOL1        -0.5519
     116    H55     23.933012   16.085674   24.016317 H          1 MOL1         0.3769
     117    C34     23.458910   15.860878   21.348970 C.3        1 MOL1         0.1018
     118    H56     24.441504   15.422871   21.128984 H          1 MOL1         0.0783
     119    C35     22.536541   15.668680   20.113384 C.3        1 MOL1         0.1043
     120    H57     21.657320   16.316403   20.226811 H          1 MOL1         0.0783
     121    O29     22.113191   14.286474   20.010868 O.3        1 MOL1        -0.3740
     122    C36     23.234160   16.040327   18.786189 C.3        1 MOL1         0.0138
     123    H58     23.575263   17.082468   18.838908 H          1 MOL1         0.0794
     124    H59     22.500671   15.973122   17.971699 H          1 MOL1         0.0794
     125    O30     24.342480   15.173210   18.528364 O.3        1 MOL1        -0.5486
     126    H60     23.990448   14.257776   18.597477 H          1 MOL1         0.3769
     127    C1      20.641769   19.490739   25.521362 C.2        1 MOL1         0.6145
     128    O1      21.856406   19.502778   25.598722 O.co2      1 MOL1        -0.6735
     129    O2      19.904567   19.342635   26.475781 O.co2      1 MOL1        -0.6735
     130    C2      20.014307   19.653376   24.140624 C.3        1 MOL1        -0.1985
     131    H1      20.600477   20.391515   23.583094 H          1 MOL1         0.0740
     132    H2      19.012079   20.072900   24.278808 H          1 MOL1         0.0740
     133    C3      19.921517   18.315233   23.364196 C.3        1 MOL1        -0.1882
     134    H3      20.912168   17.844204   23.316637 H          1 MOL1         0.0742
     135    H4      19.280896   17.630887   23.936400 H          1 MOL1         0.0742
     136    C4      19.345741   18.467974   21.936864 C.3        1 MOL1        -0.1880
     137    H5      18.436376   19.081365   21.963935 H          1 MOL1         0.0742
     138    H6      19.044248   17.476141   21.579678 H          1 MOL1         0.0742
     139    C5      20.359390   19.057475   20.931284 C.3        1 MOL1        -0.1880
     140    H7      20.644355   20.072221   21.234695 H          1 MOL1         0.0742
     141    H8      21.272766   18.452988   20.952725 H          1 MOL1         0.0742
     142    C6      19.797832   19.082545   19.493229 C.3        1 MOL1        -0.1856
     143    H9      19.030407   19.864537   19.413074 H          1 MOL1         0.0742
     144    H10     19.301713   18.128314   19.269237 H          1 MOL1         0.0742
     145    C7      20.903271   19.317788   18.442860 C.3        1 MOL1        -0.2871
     146    H11     20.468117   19.396680   17.438404 H          1 MOL1         0.0754
     147    H12     21.466359   20.235482   18.643655 H          1 MOL1         0.0754
     148    H13     21.614119   18.483767   18.436758 H          1 MOL1         0.0754
@<TRIPOS>BOND
    1     1     2    1
    2     1     3    1
    3     1     4    1
    4     4     5    1
    5     4     6    1
    6     6     7    1
    7     4     8    1
    8     8     9    1
    9     8    10    1
   10    10    11    1
   11     8    12    1
   12    12    13    1
   13    12    14    1
   14    14    15    1
   15     1    16    1
   16    14    16    1
   17    14    17    1
   18    17    18    1
   19    17    19    1
   20    17    20    1
   21    20    21    1
   22    22    23    1
   23    22    24    1
   24    22    25    1
   25    25    26    1
   26    25    27    1
   27    27    28    1
   28    25    29    1
   29    29    30    1
   30    29    31    1
   31    31    32    1
   32     3    33    1
   33    29    33    1
   34    33    34    1
   35    33    35    1
   36    35    36    1
   37    22    37    1
   38    35    37    1
   39    35    38    1
   40    38    39    1
   41    38    40    1
   42    38    41    1
   43    41    42    1
   44    43    44    1
   45    43    45    1
   46    43    46    1
   47    46    47    1
   48    46    48    1
   49    48    49    1
   50    46    50    1
   51    50    51    1
   52    50    52    1
   53    52    53    1
   54    24    54    1
   55    50    54    1
   56    54    55    1
   57    54    56    1
   58    56    57    1
   59    43    58    1
   60    56    58    1
   61    56    59    1
   62    59    60    1
   63    59    61    1
   64    59    62    1
   65    62    63    1
   66    64    65    1
   67    64    66    1
   68    64    67    1
   69    67    68    1
   70    67    69    1
   71    69    70    1
   72    67    71    1
   73    71    72    1
   74    71    73    1
   75    73    74    1
   76    45    75    1
   77    71    75    1
   78    75    76    1
   79    75    77    1
   80    77    78    1
   81    64    79    1
   82    77    79    1
   83    77    80    1
   84    80    81    1
   85    80    82    1
   86    80    83    1
   87    83    84    1
   88    85    86    1
   89    85    87    1
   90    85    88    1
   91    88    89    1
   92    88    90    1
   93    90    91    1
   94    88    92    1
   95    92    93    1
   96    92    94    1
   97    94    95    1
   98    66    96    1
   99    92    96    1
  100    96    97    1
  101    96    98    1
  102    98    99    1
  103    85   100    1
  104    98   100    1
  105    98   101    1
  106   101   102    1
  107   101   103    1
  108   101   104    1
  109   104   105    1
  110   106   107    1
  111    12   108    1
  112   106   108    1
  113   106   109    1
  114   109   110    1
  115   109   111    1
  116   111   112    1
  117   109   113    1
  118   113   114    1
  119   113   115    1
  120   115   116    1
  121    87   117    1
  122   113   117    1
  123   117   118    1
  124   117   119    1
  125   119   120    1
  126   106   121    1
  127   119   121    1
  128   119   122    1
  129   122   123    1
  130   122   124    1
  131   122   125    1
  132   125   126    1
  133   127   128    1
  134   127   129    2
  135   127   130    1
  136   130   131    1
  137   130   132    1
  138   130   133    1
  139   133   134    1
  140   133   135    1
  141   133   136    1
  142   136   137    1
  143   136   138    1
  144   136   139    1
  145   139   140    1
  146   139   141    1
  147   139   142    1
  148   142   143    1
  149   142   144    1
  150   142   145    1
  151   145   146    1
  152   145   147    1
  153   145   148    1
@<TRIPOS>SUBSTRUCTURE
       1 MOL1            1 RESIDUE      1      MOL     
       2 MOL1          148 RESIDUE      1      MOL     
@<SCITEGIC>MOL_PROPERTY
VM2 Rank
SciTegic.value.IntegerValue
7

@<SCITEGIC>MOL_PROPERTY
Conf_Id
SciTegic.value.IntegerValue
26592

@<SCITEGIC>MOL_PROPERTY
Probability
SciTegic.value.DoubleValue
1.43

@<SCITEGIC>MOL_PROPERTY
Sum Probability
SciTegic.value.DoubleValue
14.09

@<SCITEGIC>MOL_PROPERTY
Delta G
SciTegic.value.DoubleValue
0.442

@<SCITEGIC>MOL_PROPERTY
G
SciTegic.value.DoubleValue
497.470

@<SCITEGIC>MOL_PROPERTY
E
SciTegic.value.DoubleValue
305.212

@<SCITEGIC>MOL_PROPERTY
-TS
SciTegic.value.DoubleValue
192.258

@<SCITEGIC>MOL_PROPERTY
U+W
SciTegic.value.DoubleValue
174.653

@<SCITEGIC>MOL_PROPERTY
U
SciTegic.value.DoubleValue
248.353

@<SCITEGIC>MOL_PROPERTY
W
SciTegic.value.DoubleValue
-73.701

@<SCITEGIC>MOL_PROPERTY
W(PB)
SciTegic.value.DoubleValue
-79.841

@<SCITEGIC>MOL_PROPERTY
W(SA)
SciTegic.value.DoubleValue
6.141

@<SCITEGIC>MOL_PROPERTY
Valence
SciTegic.value.DoubleValue
151.003

@<SCITEGIC>MOL_PROPERTY
Coulomb
SciTegic.value.DoubleValue
123.569

@<SCITEGIC>MOL_PROPERTY
VdW
SciTegic.value.DoubleValue
-26.218

@<SCITEGIC>MOL_PROPERTY
VdW6
SciTegic.value.DoubleValue
-182.199

@<SCITEGIC>MOL_PROPERTY
VdW12
SciTegic.value.DoubleValue
155.981

@<SCITEGIC>MOL_PROPERTY
Bond
SciTegic.value.DoubleValue
4.499

@<SCITEGIC>MOL_PROPERTY
Angle
SciTegic.value.DoubleValue
11.505

@<SCITEGIC>MOL_PROPERTY
Pdih
SciTegic.value.DoubleValue
134.998

@<SCITEGIC>MOL_PROPERTY
Idih
SciTegic.value.DoubleValue
0.000

@<SCITEGIC>MOL_PROPERTY
Tether
SciTegic.value.DoubleValue
0.000

@<TRIPOS>MOLECULE
CD_guest-s21_vm2_rndm.mol2 : vm2 host+ligand conformer 8
         148         153           2
SMALL
USER_CHARGES
 
@<TRIPOS>ATOM
       1    C1      16.330181   15.173576   21.633743 C.3        1 MOL1         0.2972
       2    H1      15.252924   15.048612   21.801714 H          1 MOL1         0.0751
       3    O1      16.659440   16.533382   21.282212 O.3        1 MOL1        -0.3740
       4    C2      17.117391   14.771675   22.904436 C.3        1 MOL1         0.1003
       5    H2      16.907332   13.710892   23.093807 H          1 MOL1         0.0783
       6    O2      16.712764   15.535345   24.047849 O.3        1 MOL1        -0.5519
       7    H3      17.419135   15.369896   24.713200 H          1 MOL1         0.3769
       8    C3      18.639518   14.915693   22.683354 C.3        1 MOL1         0.1053
       9    H4      18.875683   15.980645   22.563606 H          1 MOL1         0.0783
      10    O3      19.314000   14.388508   23.830371 O.3        1 MOL1        -0.5519
      11    H5      20.222009   14.133678   23.538639 H          1 MOL1         0.3769
      12    C4      19.100088   14.175875   21.400648 C.3        1 MOL1         0.1018
      13    H6      19.137588   13.097783   21.607092 H          1 MOL1         0.0783
      14    C5      18.170405   14.455745   20.185321 C.3        1 MOL1         0.1043
      15    H7      18.351934   15.483644   19.845033 H          1 MOL1         0.0783
      16    O4      16.778455   14.310720   20.566086 O.3        1 MOL1        -0.3740
      17    C6      18.434688   13.516189   18.988237 C.3        1 MOL1         0.0138
      18    H8      19.455785   13.684260   18.620332 H          1 MOL1         0.0794
      19    H9      17.745935   13.779378   18.174249 H          1 MOL1         0.0794
      20    O5      18.263704   12.145464   19.360659 O.3        1 MOL1        -0.5486
      21    H10     17.348547   12.068840   19.711731 H          1 MOL1         0.3769
      22    C7      14.843607   20.274913   20.934230 C.3        1 MOL1         0.2972
      23    H11     14.155140   21.099260   20.708230 H          1 MOL1         0.0751
      24    O6      16.129550   20.757621   21.364714 O.3        1 MOL1        -0.3740
      25    C8      14.266687   19.370003   22.052884 C.3        1 MOL1         0.1003
      26    H12     13.302756   18.983742   21.696926 H          1 MOL1         0.0783
      27    O7      14.061681   20.106925   23.266642 O.3        1 MOL1        -0.5519
      28    H13     13.827654   19.423277   23.934085 H          1 MOL1         0.3769
      29    C9      15.192285   18.160059   22.328924 C.3        1 MOL1         0.1053
      30    H14     16.126995   18.537631   22.767657 H          1 MOL1         0.0783
      31    O8      14.541245   17.279447   23.252337 O.3        1 MOL1        -0.5519
      32    H15     15.243598   16.671325   23.593318 H          1 MOL1         0.3769
      33    C10     15.545450   17.409168   21.016550 C.3        1 MOL1         0.1018
      34    H16     14.669786   16.850568   20.660070 H          1 MOL1         0.0783
      35    C11     16.002813   18.382866   19.899980 C.3        1 MOL1         0.1043
      36    H17     16.982792   18.789536   20.177143 H          1 MOL1         0.0783
      37    O9      15.042468   19.458837   19.761023 O.3        1 MOL1        -0.3740
      38    C12     16.140198   17.697856   18.522494 C.3        1 MOL1         0.0138
      39    H18     16.856390   16.870185   18.602879 H          1 MOL1         0.0794
      40    H19     16.552881   18.422528   17.807998 H          1 MOL1         0.0794
      41    O10     14.875784   17.210963   18.063348 O.3        1 MOL1        -0.5486
      42    H20     14.258373   17.974361   18.113887 H          1 MOL1         0.3769
      43    C13     18.423161   24.172553   21.658206 C.3        1 MOL1         0.2972
      44    H21     18.817362   25.193552   21.736796 H          1 MOL1         0.0751
      45    O11     19.475049   23.205353   21.468331 O.3        1 MOL1        -0.3740
      46    C14     17.635568   23.810566   22.941468 C.3        1 MOL1         0.1003
      47    H22     16.798897   24.516569   23.022883 H          1 MOL1         0.0783
      48    O12     18.459833   23.920651   24.109997 O.3        1 MOL1        -0.5519
      49    H23     17.932637   23.497203   24.824263 H          1 MOL1         0.3769
      50    C15     17.046414   22.385926   22.842126 C.3        1 MOL1         0.1053
      51    H24     17.880360   21.673773   22.857288 H          1 MOL1         0.0783
      52    O13     16.177747   22.147198   23.956103 O.3        1 MOL1        -0.5519
      53    H25     15.636046   21.352895   23.725713 H          1 MOL1         0.3769
      54    C16     16.260076   22.181738   21.524273 C.3        1 MOL1         0.1018
      55    H26     15.284292   22.675722   21.623503 H          1 MOL1         0.0783
      56    C17     17.010433   22.728864   20.276852 C.3        1 MOL1         0.1043
      57    H27     17.848581   22.054246   20.055915 H          1 MOL1         0.0783
      58    O14     17.512531   24.062708   20.543969 O.3        1 MOL1        -0.3740
      59    C18     16.127528   22.809208   19.011620 C.3        1 MOL1         0.0138
      60    H28     15.822351   21.796012   18.719812 H          1 MOL1         0.0794
      61    H29     16.728467   23.217649   18.188129 H          1 MOL1         0.0794
      62    O15     14.975463   23.626869   19.237370 O.3        1 MOL1        -0.5486
      63    H30     15.314184   24.504540   19.522820 H          1 MOL1         0.3769
      64    C19     23.525537   22.743194   20.842489 C.3        1 MOL1         0.2972
      65    H31     24.587945   22.836052   20.583214 H          1 MOL1         0.0751
      66    O16     23.169977   21.370440   21.113643 O.3        1 MOL1        -0.3740
      67    C20     23.168133   23.644188   22.057615 C.3        1 MOL1         0.1003
      68    H32     23.350835   24.682468   21.752661 H          1 MOL1         0.0783
      69    O17     24.000999   23.346884   23.188581 O.3        1 MOL1        -0.5519
      70    H33     23.711453   22.463653   23.528155 H          1 MOL1         0.3769
      71    C21     21.661291   23.513769   22.404986 C.3        1 MOL1         0.1053
      72    H34     21.484928   22.493882   22.772317 H          1 MOL1         0.0783
      73    O18     21.287211   24.464208   23.410188 O.3        1 MOL1        -0.5519
      74    H35     20.361107   24.242293   23.676973 H          1 MOL1         0.3769
      75    C22     20.774925   23.736820   21.151908 C.3        1 MOL1         0.1018
      76    H36     20.737034   24.810315   20.923978 H          1 MOL1         0.0783
      77    C23     21.284077   22.979188   19.896965 C.3        1 MOL1         0.1043
      78    H37     21.072260   21.911336   20.028404 H          1 MOL1         0.0783
      79    O19     22.710486   23.183139   19.736745 O.3        1 MOL1        -0.3740
      80    C24     20.593916   23.438842   18.593797 C.3        1 MOL1         0.0138
      81    H38     19.511489   23.280967   18.685111 H          1 MOL1         0.0794
      82    H39     20.949683   22.810513   17.766386 H          1 MOL1         0.0794
      83    O20     20.869893   24.816611   18.324589 O.3        1 MOL1        -0.5486
      84    H40     21.849043   24.904630   18.337672 H          1 MOL1         0.3769
      85    C25     24.759089   17.685287   22.137740 C.3        1 MOL1         0.2972
      86    H41     25.390559   16.857060   22.482968 H          1 MOL1         0.0751
      87    O21     23.597085   17.203950   21.428772 O.3        1 MOL1        -0.3740
      88    C26     24.301450   18.545710   23.345833 C.3        1 MOL1         0.1003
      89    H42     25.206968   18.930352   23.832560 H          1 MOL1         0.0783
      90    O22     23.577071   17.731502   24.285307 O.3        1 MOL1        -0.5519
      91    H43     22.996527   18.321221   24.833374 H          1 MOL1         0.3769
      92    C27     23.468871   19.767379   22.877059 C.3        1 MOL1         0.1053
      93    H44     22.508060   19.403154   22.494020 H          1 MOL1         0.0783
      94    O23     23.262552   20.665097   23.976230 O.3        1 MOL1        -0.5519
      95    H45     22.649743   20.213466   24.612428 H          1 MOL1         0.3769
      96    C28     24.173688   20.540095   21.731294 C.3        1 MOL1         0.1018
      97    H46     24.990134   21.135208   22.160762 H          1 MOL1         0.0783
      98    C29     24.738861   19.603874   20.628508 C.3        1 MOL1         0.1043
      99    H47     23.894528   19.184943   20.064743 H          1 MOL1         0.0783
     100    O24     25.501947   18.535796   21.239840 O.3        1 MOL1        -0.3740
     101    C30     25.661367   20.322351   19.618441 C.3        1 MOL1         0.0138
     102    H48     25.072037   21.059434   19.057141 H          1 MOL1         0.0794
     103    H49     26.033782   19.584440   18.895254 H          1 MOL1         0.0794
     104    O25     26.755286   20.964981   20.279478 O.3        1 MOL1        -0.5486
     105    H50     27.218477   20.263487   20.789273 H          1 MOL1         0.3769
     106    C31     21.446234   13.752743   20.782649 C.3        1 MOL1         0.2972
     107    H51     21.043850   12.765748   20.520523 H          1 MOL1         0.0751
     108    O26     20.395254   14.705104   21.056410 O.3        1 MOL1        -0.3740
     109    C32     22.394848   13.669707   22.004740 C.3        1 MOL1         0.1003
     110    H52     23.261892   13.066254   21.705503 H          1 MOL1         0.0783
     111    O27     21.768153   13.051716   23.133955 O.3        1 MOL1        -0.5519
     112    H53     22.419813   13.152917   23.864657 H          1 MOL1         0.3769
     113    C33     22.905962   15.080008   22.381108 C.3        1 MOL1         0.1053
     114    H54     22.045663   15.680558   22.709280 H          1 MOL1         0.0783
     115    O28     23.847684   14.967835   23.454476 O.3        1 MOL1        -0.5519
     116    H55     23.856583   15.856293   23.890773 H          1 MOL1         0.3769
     117    C34     23.549323   15.788499   21.155163 C.3        1 MOL1         0.1018
     118    H56     24.554497   15.381933   20.981901 H          1 MOL1         0.0783
     119    C35     22.712789   15.628859   19.851961 C.3        1 MOL1         0.1043
     120    H57     21.849243   16.299966   19.909677 H          1 MOL1         0.0783
     121    O29     22.242178   14.266327   19.694811 O.3        1 MOL1        -0.3740
     122    C36     23.508463   16.002516   18.582047 C.3        1 MOL1         0.0138
     123    H58     23.853535   17.041513   18.668653 H          1 MOL1         0.0794
     124    H59     22.835585   15.949183   17.715856 H          1 MOL1         0.0794
     125    O30     24.623199   15.124916   18.397314 O.3        1 MOL1        -0.5486
     126    H60     24.255817   14.213030   18.410492 H          1 MOL1         0.3769
     127    C1      20.356164   19.291840   25.537824 C.2        1 MOL1         0.6145
     128    O1      21.567740   19.206430   25.631595 O.co2      1 MOL1        -0.6735
     129    O2      19.579725   18.948924   26.407072 O.co2      1 MOL1        -0.6735
     130    C2      19.790753   19.865529   24.242997 C.3        1 MOL1        -0.1985
     131    H1      20.402559   20.734105   23.975704 H          1 MOL1         0.0740
     132    H2      18.776257   20.232986   24.435687 H          1 MOL1         0.0740
     133    C3      19.777576   18.834211   23.087354 C.3        1 MOL1        -0.1882
     134    H3      20.703399   18.244131   23.119518 H          1 MOL1         0.0742
     135    H4      18.952706   18.127167   23.244079 H          1 MOL1         0.0742
     136    C4      19.644457   19.505296   21.702812 C.3        1 MOL1        -0.1880
     137    H5      20.380830   20.314540   21.614109 H          1 MOL1         0.0742
     138    H6      18.652616   19.960215   21.605603 H          1 MOL1         0.0742
     139    C5      19.867972   18.491471   20.564025 C.3        1 MOL1        -0.1880
     140    H7      20.862400   18.046472   20.683405 H          1 MOL1         0.0742
     141    H8      19.138334   17.676079   20.649996 H          1 MOL1         0.0742
     142    C6      19.766678   19.144929   19.170152 C.3        1 MOL1        -0.1856
     143    H9      20.540770   19.916194   19.068838 H          1 MOL1         0.0742
     144    H10     18.798105   19.649935   19.061446 H          1 MOL1         0.0742
     145    C7      19.938167   18.106532   18.043967 C.3        1 MOL1        -0.2871
     146    H11     19.193287   17.305741   18.126972 H          1 MOL1         0.0754
     147    H12     20.934751   17.650777   18.083182 H          1 MOL1         0.0754
     148    H13     19.821862   18.580061   17.060769 H          1 MOL1         0.0754
@<TRIPOS>BOND
    1     1     2    1
    2     1     3    1
    3     1     4    1
    4     4     5    1
    5     4     6    1
    6     6     7    1
    7     4     8    1
    8     8     9    1
    9     8    10    1
   10    10    11    1
   11     8    12    1
   12    12    13    1
   13    12    14    1
   14    14    15    1
   15     1    16    1
   16    14    16    1
   17    14    17    1
   18    17    18    1
   19    17    19    1
   20    17    20    1
   21    20    21    1
   22    22    23    1
   23    22    24    1
   24    22    25    1
   25    25    26    1
   26    25    27    1
   27    27    28    1
   28    25    29    1
   29    29    30    1
   30    29    31    1
   31    31    32    1
   32     3    33    1
   33    29    33    1
   34    33    34    1
   35    33    35    1
   36    35    36    1
   37    22    37    1
   38    35    37    1
   39    35    38    1
   40    38    39    1
   41    38    40    1
   42    38    41    1
   43    41    42    1
   44    43    44    1
   45    43    45    1
   46    43    46    1
   47    46    47    1
   48    46    48    1
   49    48    49    1
   50    46    50    1
   51    50    51    1
   52    50    52    1
   53    52    53    1
   54    24    54    1
   55    50    54    1
   56    54    55    1
   57    54    56    1
   58    56    57    1
   59    43    58    1
   60    56    58    1
   61    56    59    1
   62    59    60    1
   63    59    61    1
   64    59    62    1
   65    62    63    1
   66    64    65    1
   67    64    66    1
   68    64    67    1
   69    67    68    1
   70    67    69    1
   71    69    70    1
   72    67    71    1
   73    71    72    1
   74    71    73    1
   75    73    74    1
   76    45    75    1
   77    71    75    1
   78    75    76    1
   79    75    77    1
   80    77    78    1
   81    64    79    1
   82    77    79    1
   83    77    80    1
   84    80    81    1
   85    80    82    1
   86    80    83    1
   87    83    84    1
   88    85    86    1
   89    85    87    1
   90    85    88    1
   91    88    89    1
   92    88    90    1
   93    90    91    1
   94    88    92    1
   95    92    93    1
   96    92    94    1
   97    94    95    1
   98    66    96    1
   99    92    96    1
  100    96    97    1
  101    96    98    1
  102    98    99    1
  103    85   100    1
  104    98   100    1
  105    98   101    1
  106   101   102    1
  107   101   103    1
  108   101   104    1
  109   104   105    1
  110   106   107    1
  111    12   108    1
  112   106   108    1
  113   106   109    1
  114   109   110    1
  115   109   111    1
  116   111   112    1
  117   109   113    1
  118   113   114    1
  119   113   115    1
  120   115   116    1
  121    87   117    1
  122   113   117    1
  123   117   118    1
  124   117   119    1
  125   119   120    1
  126   106   121    1
  127   119   121    1
  128   119   122    1
  129   122   123    1
  130   122   124    1
  131   122   125    1
  132   125   126    1
  133   127   128    1
  134   127   129    2
  135   127   130    1
  136   130   131    1
  137   130   132    1
  138   130   133    1
  139   133   134    1
  140   133   135    1
  141   133   136    1
  142   136   137    1
  143   136   138    1
  144   136   139    1
  145   139   140    1
  146   139   141    1
  147   139   142    1
  148   142   143    1
  149   142   144    1
  150   142   145    1
  151   145   146    1
  152   145   147    1
  153   145   148    1
@<TRIPOS>SUBSTRUCTURE
       1 MOL1            1 RESIDUE      1      MOL     
       2 MOL1          148 RESIDUE      1      MOL     
@<SCITEGIC>MOL_PROPERTY
VM2 Rank
SciTegic.value.IntegerValue
8

@<SCITEGIC>MOL_PROPERTY
Conf_Id
SciTegic.value.IntegerValue
23393

@<SCITEGIC>MOL_PROPERTY
Probability
SciTegic.value.DoubleValue
1.41

@<SCITEGIC>MOL_PROPERTY
Sum Probability
SciTegic.value.DoubleValue
15.50

@<SCITEGIC>MOL_PROPERTY
Delta G
SciTegic.value.DoubleValue
0.450

@<SCITEGIC>MOL_PROPERTY
G
SciTegic.value.DoubleValue
497.478

@<SCITEGIC>MOL_PROPERTY
E
SciTegic.value.DoubleValue
305.251

@<SCITEGIC>MOL_PROPERTY
-TS
SciTegic.value.DoubleValue
192.228

@<SCITEGIC>MOL_PROPERTY
U+W
SciTegic.value.DoubleValue
174.691

@<SCITEGIC>MOL_PROPERTY
U
SciTegic.value.DoubleValue
247.540

@<SCITEGIC>MOL_PROPERTY
W
SciTegic.value.DoubleValue
-72.849

@<SCITEGIC>MOL_PROPERTY
W(PB)
SciTegic.value.DoubleValue
-79.023

@<SCITEGIC>MOL_PROPERTY
W(SA)
SciTegic.value.DoubleValue
6.174

@<SCITEGIC>MOL_PROPERTY
Valence
SciTegic.value.DoubleValue
149.830

@<SCITEGIC>MOL_PROPERTY
Coulomb
SciTegic.value.DoubleValue
122.253

@<SCITEGIC>MOL_PROPERTY
VdW
SciTegic.value.DoubleValue
-24.543

@<SCITEGIC>MOL_PROPERTY
VdW6
SciTegic.value.DoubleValue
-180.455

@<SCITEGIC>MOL_PROPERTY
VdW12
SciTegic.value.DoubleValue
155.912

@<SCITEGIC>MOL_PROPERTY
Bond
SciTegic.value.DoubleValue
4.578

@<SCITEGIC>MOL_PROPERTY
Angle
SciTegic.value.DoubleValue
11.627

@<SCITEGIC>MOL_PROPERTY
Pdih
SciTegic.value.DoubleValue
133.625

@<SCITEGIC>MOL_PROPERTY
Idih
SciTegic.value.DoubleValue
0.000

@<SCITEGIC>MOL_PROPERTY
Tether
SciTegic.value.DoubleValue
0.000

