@<TRIPOS>MOLECULE
CD_guest-3_vm2_rndm.mol2 : vm2 host+ligand conformer 1
         155         160           2
SMALL
USER_CHARGES
 
@<TRIPOS>ATOM
       1    C1      16.353333   15.183475   21.741380 C.3        1 MOL1         0.2972
       2    H1      15.278043   15.076420   21.933940 H          1 MOL1         0.0751
       3    O1      16.685913   16.515615   21.299809 O.3        1 MOL1        -0.3740
       4    C2      17.163917   14.859638   23.021644 C.3        1 MOL1         0.1003
       5    H2      16.955591   13.813142   23.279801 H          1 MOL1         0.0783
       6    O2      16.774954   15.698526   24.120371 O.3        1 MOL1        -0.5519
       7    H3      15.971496   16.198269   23.835426 H          1 MOL1         0.3769
       8    C3      18.681386   14.995707   22.757977 C.3        1 MOL1         0.1053
       9    H4      18.901576   16.054130   22.580393 H          1 MOL1         0.0783
      10    O3      19.396363   14.550789   23.913558 O.3        1 MOL1        -0.5519
      11    H5      18.928172   14.972578   24.669201 H          1 MOL1         0.3769
      12    C4      19.123113   14.194988   21.506033 C.3        1 MOL1         0.1018
      13    H6      19.194519   13.132711   21.775426 H          1 MOL1         0.0783
      14    C5      18.159612   14.377627   20.298078 C.3        1 MOL1         0.1043
      15    H7      18.326487   15.378567   19.878912 H          1 MOL1         0.0783
      16    O4      16.778049   14.255113   20.721463 O.3        1 MOL1        -0.3740
      17    C6      18.399728   13.355336   19.165060 C.3        1 MOL1         0.0138
      18    H8      19.404458   13.510497   18.749934 H          1 MOL1         0.0794
      19    H9      17.680058   13.546717   18.357855 H          1 MOL1         0.0794
      20    O5      18.265460   12.013597   19.642567 O.3        1 MOL1        -0.5486
      21    H10     17.361018   11.945248   20.021937 H          1 MOL1         0.3769
      22    C7      14.867919   20.236617   20.825651 C.3        1 MOL1         0.2972
      23    H11     14.191350   21.057794   20.555328 H          1 MOL1         0.0751
      24    O6      16.134353   20.723393   21.308285 O.3        1 MOL1        -0.3740
      25    C8      14.246528   19.350164   21.934724 C.3        1 MOL1         0.1003
      26    H12     13.299325   18.955739   21.544435 H          1 MOL1         0.0783
      27    O7      13.983204   20.115239   23.122055 O.3        1 MOL1        -0.5519
      28    H13     14.795720   20.646269   23.321307 H          1 MOL1         0.3769
      29    C9      15.164762   18.146110   22.263470 C.3        1 MOL1         0.1053
      30    H14     16.076562   18.533665   22.738529 H          1 MOL1         0.0783
      31    O8      14.478591   17.275956   23.169429 O.3        1 MOL1        -0.5519
      32    H15     14.037181   17.877449   23.811594 H          1 MOL1         0.3769
      33    C10     15.580373   17.381109   20.976439 C.3        1 MOL1         0.1018
      34    H16     14.725768   16.812389   20.586094 H          1 MOL1         0.0783
      35    C11     16.084928   18.342487   19.869427 C.3        1 MOL1         0.1043
      36    H17     17.049850   18.761806   20.176777 H          1 MOL1         0.0783
      37    O9      15.115509   19.399749   19.676611 O.3        1 MOL1        -0.3740
      38    C12     16.277205   17.630204   18.514609 C.3        1 MOL1         0.0138
      39    H18     15.301369   17.297375   18.136493 H          1 MOL1         0.0794
      40    H19     16.900856   16.738660   18.657658 H          1 MOL1         0.0794
      41    O10     16.904239   18.514556   17.583713 O.3        1 MOL1        -0.5486
      42    H20     16.339292   19.316274   17.545533 H          1 MOL1         0.3769
      43    C13     18.360161   24.162654   21.753639 C.3        1 MOL1         0.2972
      44    H21     18.751471   25.181840   21.866105 H          1 MOL1         0.0751
      45    O11     19.415628   23.196826   21.572656 O.3        1 MOL1        -0.3740
      46    C14     17.545398   23.764540   23.008795 C.3        1 MOL1         0.1003
      47    H22     16.692257   24.451463   23.082422 H          1 MOL1         0.0783
      48    O12     18.343785   23.873379   24.197882 O.3        1 MOL1        -0.5519
      49    H23     19.292500   23.839128   23.918368 H          1 MOL1         0.3769
      50    C15     16.993055   22.329141   22.859731 C.3        1 MOL1         0.1053
      51    H24     17.849245   21.645454   22.874446 H          1 MOL1         0.0783
      52    O13     16.122773   22.032621   23.956237 O.3        1 MOL1        -0.5519
      53    H25     16.599083   22.361543   24.751103 H          1 MOL1         0.3769
      54    C16     16.234080   22.143725   21.521434 C.3        1 MOL1         0.1018
      55    H26     15.246412   22.613689   21.619685 H          1 MOL1         0.0783
      56    C17     16.991793   22.744714   20.302057 C.3        1 MOL1         0.1043
      57    H27     17.841101   22.088815   20.068725 H          1 MOL1         0.0783
      58    O14     17.476584   24.075233   20.616535 O.3        1 MOL1        -0.3740
      59    C18     16.125031   22.852678   19.027786 C.3        1 MOL1         0.0138
      60    H28     15.844959   21.844441   18.696450 H          1 MOL1         0.0794
      61    H29     16.728310   23.301715   18.227379 H          1 MOL1         0.0794
      62    O15     14.952810   23.637203   19.265694 O.3        1 MOL1        -0.5486
      63    H30     15.267125   24.514362   19.579031 H          1 MOL1         0.3769
      64    C19     23.484770   22.762682   20.951108 C.3        1 MOL1         0.2972
      65    H31     24.545077   22.886450   20.695473 H          1 MOL1         0.0751
      66    O16     23.161294   21.378057   21.197699 O.3        1 MOL1        -0.3740
      67    C20     23.102003   23.623865   22.185862 C.3        1 MOL1         0.1003
      68    H32     23.269088   24.673104   21.909615 H          1 MOL1         0.0783
      69    O17     23.907893   23.316913   23.332942 O.3        1 MOL1        -0.5519
      70    H33     23.717788   22.375788   23.576145 H          1 MOL1         0.3769
      71    C21     21.600166   23.453845   22.516023 C.3        1 MOL1         0.1053
      72    H34     21.435587   22.414947   22.834809 H          1 MOL1         0.0783
      73    O18     21.235550   24.347726   23.572042 O.3        1 MOL1        -0.5519
      74    H35     21.968808   24.287236   24.224780 H          1 MOL1         0.3769
      75    C22     20.719808   23.724236   21.270030 C.3        1 MOL1         0.1018
      76    H36     20.694210   24.803583   21.069001 H          1 MOL1         0.0783
      77    C23     21.233287   22.990810   20.002675 C.3        1 MOL1         0.1043
      78    H37     21.019880   21.921509   20.105776 H          1 MOL1         0.0783
      79    O19     22.659282   23.212228   19.855054 O.3        1 MOL1        -0.3740
      80    C24     20.547634   23.496265   18.716353 C.3        1 MOL1         0.0138
      81    H38     20.804693   24.552190   18.558633 H          1 MOL1         0.0794
      82    H39     19.458737   23.432456   18.834953 H          1 MOL1         0.0794
      83    O20     20.960586   22.706929   17.599342 O.3        1 MOL1        -0.5486
      84    H40     21.942308   22.725949   17.602198 H          1 MOL1         0.3769
      85    C25     24.824969   17.684872   22.072909 C.3        1 MOL1         0.2972
      86    H41     25.472521   16.848240   22.365333 H          1 MOL1         0.0751
      87    O21     23.620214   17.224330   21.428232 O.3        1 MOL1        -0.3740
      88    C26     24.446565   18.532032   23.316066 C.3        1 MOL1         0.1003
      89    H42     25.382533   18.911742   23.746155 H          1 MOL1         0.0783
      90    O22     23.755967   17.750285   24.304249 O.3        1 MOL1        -0.5519
      91    H43     23.884694   16.799594   24.068479 H          1 MOL1         0.3769
      92    C27     23.575042   19.741626   22.912367 C.3        1 MOL1         0.1053
      93    H44     22.611780   19.347867   22.573531 H          1 MOL1         0.0783
      94    O23     23.374605   20.574498   24.057640 O.3        1 MOL1        -0.5519
      95    H45     23.156066   19.945943   24.782392 H          1 MOL1         0.3769
      96    C28     24.206587   20.552752   21.751428 C.3        1 MOL1         0.1018
      97    H46     25.034885   21.152440   22.151513 H          1 MOL1         0.0783
      98    C29     24.723313   19.640499   20.603150 C.3        1 MOL1         0.1043
      99    H47     23.854382   19.233859   20.069119 H          1 MOL1         0.0783
     100    O24     25.513281   18.553005   21.147251 O.3        1 MOL1        -0.3740
     101    C30     25.594690   20.386994   19.568754 C.3        1 MOL1         0.0138
     102    H48     24.977968   21.137356   19.056503 H          1 MOL1         0.0794
     103    H49     25.933591   19.670016   18.808988 H          1 MOL1         0.0794
     104    O25     26.717049   21.015513   20.194266 O.3        1 MOL1        -0.5486
     105    H50     27.214347   20.301169   20.651267 H          1 MOL1         0.3769
     106    C31     21.440406   13.788950   20.801493 C.3        1 MOL1         0.2972
     107    H51     21.035176   12.804100   20.535074 H          1 MOL1         0.0751
     108    O26     20.393819   14.736282   21.098167 O.3        1 MOL1        -0.3740
     109    C32     22.398948   13.695478   22.015448 C.3        1 MOL1         0.1003
     110    H52     23.249401   13.073140   21.707701 H          1 MOL1         0.0783
     111    O27     21.768333   13.085681   23.151268 O.3        1 MOL1        -0.5519
     112    H53     20.977159   13.636574   23.379830 H          1 MOL1         0.3769
     113    C33     22.943604   15.098105   22.379514 C.3        1 MOL1         0.1053
     114    H54     22.104362   15.704105   22.749407 H          1 MOL1         0.0783
     115    O28     23.930725   14.958941   23.407210 O.3        1 MOL1        -0.5519
     116    H55     23.567262   14.277115   24.017253 H          1 MOL1         0.3769
     117    C34     23.548581   15.814300   21.138746 C.3        1 MOL1         0.1018
     118    H56     24.541793   15.398267   20.922632 H          1 MOL1         0.0783
     119    C35     22.671876   15.682553   19.862745 C.3        1 MOL1         0.1043
     120    H57     21.810680   16.356824   19.951701 H          1 MOL1         0.0783
     121    O29     22.217783   14.315579   19.706898 O.3        1 MOL1        -0.3740
     122    C36     23.459100   16.060895   18.589934 C.3        1 MOL1         0.0138
     123    H58     24.267503   15.334013   18.434410 H          1 MOL1         0.0794
     124    H59     23.920975   17.047351   18.729719 H          1 MOL1         0.0794
     125    O30     22.585731   16.088563   17.459337 O.3        1 MOL1        -0.5486
     126    H60     22.124115   15.221604   17.449341 H          1 MOL1         0.3769
     127    C1      18.613871   18.967047   24.530810 C.3        1 MOL1        -0.2427
     128    H1      18.073377   18.018808   24.424619 H          1 MOL1         0.0958
     129    H2      19.005705   19.017379   25.554615 H          1 MOL1         0.0958
     130    H3      17.893851   19.784892   24.404230 H          1 MOL1         0.0958
     131    C2      19.760637   19.065855   23.504229 C.3        1 MOL1        -0.1412
     132    H4      20.470296   18.242725   23.671160 H          1 MOL1         0.0947
     133    H5      20.315084   20.001340   23.664687 H          1 MOL1         0.0947
     134    C3      19.233217   19.015516   22.054668 C.3        1 MOL1        -0.1437
     135    H6      18.651907   18.100732   21.902073 H          1 MOL1         0.0947
     136    H7      18.549577   19.852615   21.880993 H          1 MOL1         0.0947
     137    C4      20.377450   19.075669   21.027076 C.3        1 MOL1        -0.1437
     138    H8      21.053842   18.224750   21.181329 H          1 MOL1         0.0947
     139    H9      20.959746   19.987057   21.199831 H          1 MOL1         0.0947
     140    C5      19.859340   19.070842   19.575120 C.3        1 MOL1        -0.1437
     141    H10     19.305188   18.141195   19.384980 H          1 MOL1         0.0947
     142    H11     19.154299   19.900801   19.428486 H          1 MOL1         0.0947
     143    C6      21.017441   19.197531   18.564127 C.3        1 MOL1        -0.1437
     144    H12     21.723572   18.372166   18.711052 H          1 MOL1         0.0947
     145    H13     21.575244   20.125295   18.748237 H          1 MOL1         0.0947
     146    C7      20.507458   19.184170   17.109320 C.3        1 MOL1        -0.1477
     147    H14     19.927824   18.268813   16.928208 H          1 MOL1         0.0947
     148    H15     19.829690   20.033647   16.948882 H          1 MOL1         0.0947
     149    C8      21.675917   19.258279   16.113230 C.3        1 MOL1         0.0145
     150    H16     22.333183   18.395207   16.255186 H          1 MOL1         0.0921
     151    H17     22.253794   20.168822   16.292900 H          1 MOL1         0.0921
     152    N1      21.220355   19.270353   14.669252 N.4        1 MOL1        -0.5969
     153    H18     20.688297   18.426135   14.434622 H          1 MOL1         0.3603
     154    H19     22.013020   19.318054   14.020411 H          1 MOL1         0.3603
     155    H20     20.617543   20.075539   14.470780 H          1 MOL1         0.3603
@<TRIPOS>BOND
    1     1     2    1
    2     1     3    1
    3     1     4    1
    4     4     5    1
    5     4     6    1
    6     6     7    1
    7     4     8    1
    8     8     9    1
    9     8    10    1
   10    10    11    1
   11     8    12    1
   12    12    13    1
   13    12    14    1
   14    14    15    1
   15     1    16    1
   16    14    16    1
   17    14    17    1
   18    17    18    1
   19    17    19    1
   20    17    20    1
   21    20    21    1
   22    22    23    1
   23    22    24    1
   24    22    25    1
   25    25    26    1
   26    25    27    1
   27    27    28    1
   28    25    29    1
   29    29    30    1
   30    29    31    1
   31    31    32    1
   32     3    33    1
   33    29    33    1
   34    33    34    1
   35    33    35    1
   36    35    36    1
   37    22    37    1
   38    35    37    1
   39    35    38    1
   40    38    39    1
   41    38    40    1
   42    38    41    1
   43    41    42    1
   44    43    44    1
   45    43    45    1
   46    43    46    1
   47    46    47    1
   48    46    48    1
   49    48    49    1
   50    46    50    1
   51    50    51    1
   52    50    52    1
   53    52    53    1
   54    24    54    1
   55    50    54    1
   56    54    55    1
   57    54    56    1
   58    56    57    1
   59    43    58    1
   60    56    58    1
   61    56    59    1
   62    59    60    1
   63    59    61    1
   64    59    62    1
   65    62    63    1
   66    64    65    1
   67    64    66    1
   68    64    67    1
   69    67    68    1
   70    67    69    1
   71    69    70    1
   72    67    71    1
   73    71    72    1
   74    71    73    1
   75    73    74    1
   76    45    75    1
   77    71    75    1
   78    75    76    1
   79    75    77    1
   80    77    78    1
   81    64    79    1
   82    77    79    1
   83    77    80    1
   84    80    81    1
   85    80    82    1
   86    80    83    1
   87    83    84    1
   88    85    86    1
   89    85    87    1
   90    85    88    1
   91    88    89    1
   92    88    90    1
   93    90    91    1
   94    88    92    1
   95    92    93    1
   96    92    94    1
   97    94    95    1
   98    66    96    1
   99    92    96    1
  100    96    97    1
  101    96    98    1
  102    98    99    1
  103    85   100    1
  104    98   100    1
  105    98   101    1
  106   101   102    1
  107   101   103    1
  108   101   104    1
  109   104   105    1
  110   106   107    1
  111    12   108    1
  112   106   108    1
  113   106   109    1
  114   109   110    1
  115   109   111    1
  116   111   112    1
  117   109   113    1
  118   113   114    1
  119   113   115    1
  120   115   116    1
  121    87   117    1
  122   113   117    1
  123   117   118    1
  124   117   119    1
  125   119   120    1
  126   106   121    1
  127   119   121    1
  128   119   122    1
  129   122   123    1
  130   122   124    1
  131   122   125    1
  132   125   126    1
  133   127   128    1
  134   127   129    1
  135   127   130    1
  136   127   131    1
  137   131   132    1
  138   131   133    1
  139   131   134    1
  140   134   135    1
  141   134   136    1
  142   134   137    1
  143   137   138    1
  144   137   139    1
  145   137   140    1
  146   140   141    1
  147   140   142    1
  148   140   143    1
  149   143   144    1
  150   143   145    1
  151   143   146    1
  152   146   147    1
  153   146   148    1
  154   146   149    1
  155   149   150    1
  156   149   151    1
  157   149   152    1
  158   152   153    1
  159   152   154    1
  160   152   155    1
@<TRIPOS>SUBSTRUCTURE
       1 MOL1            1 RESIDUE      1      MOL     
       2 MOL1          155 RESIDUE      1      MOL     
@<SCITEGIC>MOL_PROPERTY
VM2 Rank
SciTegic.value.IntegerValue
1

@<SCITEGIC>MOL_PROPERTY
Conf_Id
SciTegic.value.IntegerValue
22093

@<SCITEGIC>MOL_PROPERTY
Probability
SciTegic.value.DoubleValue
5.07

@<SCITEGIC>MOL_PROPERTY
Sum Probability
SciTegic.value.DoubleValue
5.07

@<SCITEGIC>MOL_PROPERTY
Delta G
SciTegic.value.DoubleValue
0.000

@<SCITEGIC>MOL_PROPERTY
G
SciTegic.value.DoubleValue
574.073

@<SCITEGIC>MOL_PROPERTY
E
SciTegic.value.DoubleValue
367.045

@<SCITEGIC>MOL_PROPERTY
-TS
SciTegic.value.DoubleValue
207.028

@<SCITEGIC>MOL_PROPERTY
U+W
SciTegic.value.DoubleValue
230.225

@<SCITEGIC>MOL_PROPERTY
U
SciTegic.value.DoubleValue
301.701

@<SCITEGIC>MOL_PROPERTY
W
SciTegic.value.DoubleValue
-71.476

@<SCITEGIC>MOL_PROPERTY
W(PB)
SciTegic.value.DoubleValue
-77.641

@<SCITEGIC>MOL_PROPERTY
W(SA)
SciTegic.value.DoubleValue
6.165

@<SCITEGIC>MOL_PROPERTY
Valence
SciTegic.value.DoubleValue
147.105

@<SCITEGIC>MOL_PROPERTY
Coulomb
SciTegic.value.DoubleValue
183.404

@<SCITEGIC>MOL_PROPERTY
VdW
SciTegic.value.DoubleValue
-28.808

@<SCITEGIC>MOL_PROPERTY
VdW6
SciTegic.value.DoubleValue
-180.786

@<SCITEGIC>MOL_PROPERTY
VdW12
SciTegic.value.DoubleValue
151.978

@<SCITEGIC>MOL_PROPERTY
Bond
SciTegic.value.DoubleValue
4.288

@<SCITEGIC>MOL_PROPERTY
Angle
SciTegic.value.DoubleValue
9.230

@<SCITEGIC>MOL_PROPERTY
Pdih
SciTegic.value.DoubleValue
133.587

@<SCITEGIC>MOL_PROPERTY
Idih
SciTegic.value.DoubleValue
0.000

@<SCITEGIC>MOL_PROPERTY
Tether
SciTegic.value.DoubleValue
0.000

