@<TRIPOS>MOLECULE
CD_guest-s19_vm2_rndm.mol2 : vm2 host+ligand conformer 1
         143         148           2
SMALL
USER_CHARGES
 
@<TRIPOS>ATOM
       1    C1      16.320925   15.274759   20.780312 C.3        1 MOL1         0.2972
       2    H1      15.265916   15.142910   20.507657 H          1 MOL1         0.0751
       3    O1      16.565451   16.579854   21.337707 O.3        1 MOL1        -0.3740
       4    C2      16.751539   14.210241   21.823131 C.3        1 MOL1         0.1003
       5    H2      16.568059   13.224002   21.377337 H          1 MOL1         0.0783
       6    O2      15.992683   14.330313   23.034971 O.3        1 MOL1        -0.5519
       7    H3      16.424858   13.707088   23.661322 H          1 MOL1         0.3769
       8    C3      18.262461   14.313297   22.144757 C.3        1 MOL1         0.1053
       9    H4      18.434556   15.254865   22.685226 H          1 MOL1         0.0783
      10    O3      18.647160   13.201112   22.962188 O.3        1 MOL1        -0.5519
      11    H5      19.607238   13.319825   23.172027 H          1 MOL1         0.3769
      12    C4      19.115623   14.338756   20.851826 C.3        1 MOL1         0.1018
      13    H6      19.119114   13.338413   20.399099 H          1 MOL1         0.0783
      14    C5      18.570258   15.356657   19.817384 C.3        1 MOL1         0.1043
      15    H7      18.729861   16.369418   20.206805 H          1 MOL1         0.0783
      16    O4      17.155570   15.124446   19.612271 O.3        1 MOL1        -0.3740
      17    C6      19.264875   15.256560   18.441386 C.3        1 MOL1         0.0138
      18    H8      20.338448   15.448249   18.564803 H          1 MOL1         0.0794
      19    H9      18.864333   16.041971   17.786785 H          1 MOL1         0.0794
      20    O5      19.057814   13.968305   17.854736 O.3        1 MOL1        -0.5486
      21    H10     18.085169   13.825618   17.850935 H          1 MOL1         0.3769
      22    C7      14.721618   20.259467   21.830173 C.3        1 MOL1         0.2972
      23    H11     14.008940   21.084024   21.956764 H          1 MOL1         0.0751
      24    O6      16.069513   20.739718   21.657272 O.3        1 MOL1        -0.3740
      25    C8      14.673602   19.327552   23.067475 C.3        1 MOL1         0.1003
      26    H12     13.650314   18.936864   23.140799 H          1 MOL1         0.0783
      27    O7      14.990986   20.039685   24.271209 O.3        1 MOL1        -0.5519
      28    H13     15.106596   19.338050   24.950862 H          1 MOL1         0.3769
      29    C9      15.627722   18.123048   22.897866 C.3        1 MOL1         0.1053
      30    H14     16.659798   18.495897   22.934332 H          1 MOL1         0.0783
      31    O8      15.408936   17.185771   23.959407 O.3        1 MOL1        -0.5519
      32    H15     15.807980   16.330902   23.664602 H          1 MOL1         0.3769
      33    C10     15.407966   17.411683   21.540299 C.3        1 MOL1         0.1018
      34    H16     14.486889   16.817572   21.610126 H          1 MOL1         0.0783
      35    C11     15.308739   18.404221   20.346779 C.3        1 MOL1         0.1043
      36    H17     16.306444   18.823509   20.159942 H          1 MOL1         0.0783
      37    O9      14.380915   19.469366   20.671826 O.3        1 MOL1        -0.3740
      38    C12     14.819895   17.752910   19.033659 C.3        1 MOL1         0.0138
      39    H18     15.566574   17.025091   18.691413 H          1 MOL1         0.0794
      40    H19     14.747399   18.530048   18.261082 H          1 MOL1         0.0794
      41    O10     13.552458   17.114241   19.214038 O.3        1 MOL1        -0.5486
      42    H20     12.938664   17.809880   19.539296 H          1 MOL1         0.3769
      43    C13     18.374986   24.132087   21.130996 C.3        1 MOL1         0.2972
      44    H21     18.758747   25.142436   20.942308 H          1 MOL1         0.0751
      45    O11     19.440888   23.171635   21.283836 O.3        1 MOL1        -0.3740
      46    C14     17.514859   24.125111   22.419618 C.3        1 MOL1         0.1003
      47    H22     16.672813   24.810577   22.257728 H          1 MOL1         0.0783
      48    O12     18.271605   24.566571   23.554902 O.3        1 MOL1        -0.5519
      49    H23     17.701924   24.356204   24.328908 H          1 MOL1         0.3769
      50    C15     16.938404   22.716569   22.686970 C.3        1 MOL1         0.1053
      51    H24     17.777079   22.049690   22.923760 H          1 MOL1         0.0783
      52    O13     16.029395   22.770008   23.793309 O.3        1 MOL1        -0.5519
      53    H25     15.734485   21.840237   23.962127 H          1 MOL1         0.3769
      54    C16     16.215850   22.155339   21.437338 C.3        1 MOL1         0.1018
      55    H26     15.247402   22.660285   21.324370 H          1 MOL1         0.0783
      56    C17     17.037188   22.341470   20.132111 C.3        1 MOL1         0.1043
      57    H27     17.882696   21.644019   20.147162 H          1 MOL1         0.0783
      58    O14     17.530035   23.701784   20.042894 O.3        1 MOL1        -0.3740
      59    C18     16.214772   22.055980   18.856503 C.3        1 MOL1         0.0138
      60    H28     15.846529   21.022335   18.889702 H          1 MOL1         0.0794
      61    H29     16.875881   22.142435   17.983950 H          1 MOL1         0.0794
      62    O15     15.117994   22.966816   18.739114 O.3        1 MOL1        -0.5486
      63    H30     15.506540   23.868137   18.797427 H          1 MOL1         0.3769
      64    C19     23.530723   22.637454   20.779056 C.3        1 MOL1         0.2972
      65    H31     24.593549   22.746286   20.527889 H          1 MOL1         0.0751
      66    O16     23.218636   21.278340   21.146614 O.3        1 MOL1        -0.3740
      67    C20     23.131527   23.607185   21.926622 C.3        1 MOL1         0.1003
      68    H32     23.319316   24.625664   21.563540 H          1 MOL1         0.0783
      69    O17     23.934572   23.384898   23.096188 O.3        1 MOL1        -0.5519
      70    H33     23.664689   22.506925   23.464533 H          1 MOL1         0.3769
      71    C21     21.615530   23.495417   22.242970 C.3        1 MOL1         0.1053
      72    H34     21.425006   22.504855   22.680065 H          1 MOL1         0.0783
      73    O18     21.218338   24.523362   23.159525 O.3        1 MOL1        -0.5519
      74    H35     20.246840   24.414181   23.308688 H          1 MOL1         0.3769
      75    C22     20.765805   23.631682   20.953986 C.3        1 MOL1         0.1018
      76    H36     20.770960   24.683817   20.640133 H          1 MOL1         0.0783
      77    C23     21.295445   22.756444   19.787822 C.3        1 MOL1         0.1043
      78    H37     21.092114   21.704333   20.022542 H          1 MOL1         0.0783
      79    O19     22.721420   22.966181   19.630615 O.3        1 MOL1        -0.3740
      80    C24     20.626256   23.077267   18.433084 C.3        1 MOL1         0.0138
      81    H38     19.547412   22.892213   18.511058 H          1 MOL1         0.0794
      82    H39     21.022200   22.389720   17.673846 H          1 MOL1         0.0794
      83    O20     20.868142   24.433989   18.048344 O.3        1 MOL1        -0.5486
      84    H40     21.844106   24.550980   18.064388 H          1 MOL1         0.3769
      85    C25     24.913183   17.697094   22.324454 C.3        1 MOL1         0.2972
      86    H41     25.552453   16.885389   22.694234 H          1 MOL1         0.0751
      87    O21     23.739533   17.187214   21.654978 O.3        1 MOL1        -0.3740
      88    C26     24.476480   18.614942   23.496065 C.3        1 MOL1         0.1003
      89    H42     25.387004   19.056375   23.921375 H          1 MOL1         0.0783
      90    O22     23.817443   17.844461   24.514727 O.3        1 MOL1        -0.5519
      91    H43     23.032412   18.359505   24.839613 H          1 MOL1         0.3769
      92    C27     23.591669   19.777484   22.978081 C.3        1 MOL1         0.1053
      93    H44     22.651878   19.355319   22.607867 H          1 MOL1         0.0783
      94    O23     23.330104   20.706268   24.038406 O.3        1 MOL1        -0.5519
      95    H45     22.673927   20.266259   24.637838 H          1 MOL1         0.3769
      96    C28     24.261535   20.521023   21.794249 C.3        1 MOL1         0.1018
      97    H46     25.054582   21.168472   22.190747 H          1 MOL1         0.0783
      98    C29     24.855480   19.552330   20.732064 C.3        1 MOL1         0.1043
      99    H47     24.023084   19.095981   20.179849 H          1 MOL1         0.0783
     100    O24     25.635550   18.517432   21.381791 O.3        1 MOL1        -0.3740
     101    C30     25.768549   20.249877   19.699150 C.3        1 MOL1         0.0138
     102    H48     25.166962   20.949736   19.104283 H          1 MOL1         0.0794
     103    H49     26.162857   19.491981   19.008981 H          1 MOL1         0.0794
     104    O25     26.842808   20.943530   20.340359 O.3        1 MOL1        -0.5486
     105    H50     27.323330   20.272854   20.875006 H          1 MOL1         0.3769
     106    C31     21.485908   13.781859   21.113957 C.3        1 MOL1         0.2972
     107    H51     21.083910   12.779725   20.919034 H          1 MOL1         0.0751
     108    O26     20.438628   14.768770   21.227664 O.3        1 MOL1        -0.3740
     109    C32     22.313636   13.773984   22.420902 C.3        1 MOL1         0.1003
     110    H52     23.153309   13.082678   22.271390 H          1 MOL1         0.0783
     111    O27     21.529511   13.325425   23.534604 O.3        1 MOL1        -0.5519
     112    H53     22.088827   13.514807   24.321553 H          1 MOL1         0.3769
     113    C33     22.899632   15.173466   22.716185 C.3        1 MOL1         0.1053
     114    H54     22.064839   15.846075   22.959737 H          1 MOL1         0.0783
     115    O28     23.785142   15.069147   23.837067 O.3        1 MOL1        -0.5519
     116    H55     23.879916   15.986961   24.194145 H          1 MOL1         0.3769
     117    C34     23.649460   15.757309   21.485436 C.3        1 MOL1         0.1018
     118    H56     24.643548   15.297731   21.406206 H          1 MOL1         0.0783
     119    C35     22.887245   15.537892   20.148077 C.3        1 MOL1         0.1043
     120    H57     22.050843   16.244441   20.110629 H          1 MOL1         0.0783
     121    O29     22.377875   14.184069   20.054784 O.3        1 MOL1        -0.3740
     122    C36     23.769365   15.795646   18.906797 C.3        1 MOL1         0.0138
     123    H58     24.151508   16.824544   18.945790 H          1 MOL1         0.0794
     124    H59     23.145935   15.708397   18.006925 H          1 MOL1         0.0794
     125    O30     24.856184   14.867226   18.848116 O.3        1 MOL1        -0.5486
     126    H60     24.451663   13.972635   18.903673 H          1 MOL1         0.3769
     127    C1      20.364885   19.653721   25.278051 C.2        1 MOL1         0.6173
     128    O1      19.913871   20.287772   26.211194 O.co2      1 MOL1        -0.6755
     129    O2      21.434618   19.072131   25.326082 O.co2      1 MOL1        -0.6755
     130    C2      19.622505   19.703198   23.990185 C.2        1 MOL1        -0.1504
     131    H1      18.758632   20.360979   23.970571 H          1 MOL1         0.0814
     132    C3      19.979537   19.009199   22.886225 C.2        1 MOL1        -0.1394
     133    H2      20.821214   18.319114   22.910824 H          1 MOL1         0.0817
     134    C4      19.273878   19.141462   21.555988 C.3        1 MOL1        -0.1849
     135    H3      18.877319   20.158323   21.456350 H          1 MOL1         0.0736
     136    H4      18.418396   18.459374   21.519485 H          1 MOL1         0.0736
     137    C5      20.220421   18.841346   20.377479 C.3        1 MOL1        -0.1866
     138    H5      21.117733   19.469668   20.451504 H          1 MOL1         0.0738
     139    H6      20.560039   17.801941   20.447332 H          1 MOL1         0.0738
     140    C6      19.532395   19.072865   19.016821 C.3        1 MOL1        -0.2879
     141    H7      20.208846   18.811375   18.193183 H          1 MOL1         0.0750
     142    H8      18.627252   18.459536   18.923230 H          1 MOL1         0.0750
     143    H9      19.245771   20.124828   18.897658 H          1 MOL1         0.0750
@<TRIPOS>BOND
    1     1     2    1
    2     1     3    1
    3     1     4    1
    4     4     5    1
    5     4     6    1
    6     6     7    1
    7     4     8    1
    8     8     9    1
    9     8    10    1
   10    10    11    1
   11     8    12    1
   12    12    13    1
   13    12    14    1
   14    14    15    1
   15     1    16    1
   16    14    16    1
   17    14    17    1
   18    17    18    1
   19    17    19    1
   20    17    20    1
   21    20    21    1
   22    22    23    1
   23    22    24    1
   24    22    25    1
   25    25    26    1
   26    25    27    1
   27    27    28    1
   28    25    29    1
   29    29    30    1
   30    29    31    1
   31    31    32    1
   32     3    33    1
   33    29    33    1
   34    33    34    1
   35    33    35    1
   36    35    36    1
   37    22    37    1
   38    35    37    1
   39    35    38    1
   40    38    39    1
   41    38    40    1
   42    38    41    1
   43    41    42    1
   44    43    44    1
   45    43    45    1
   46    43    46    1
   47    46    47    1
   48    46    48    1
   49    48    49    1
   50    46    50    1
   51    50    51    1
   52    50    52    1
   53    52    53    1
   54    24    54    1
   55    50    54    1
   56    54    55    1
   57    54    56    1
   58    56    57    1
   59    43    58    1
   60    56    58    1
   61    56    59    1
   62    59    60    1
   63    59    61    1
   64    59    62    1
   65    62    63    1
   66    64    65    1
   67    64    66    1
   68    64    67    1
   69    67    68    1
   70    67    69    1
   71    69    70    1
   72    67    71    1
   73    71    72    1
   74    71    73    1
   75    73    74    1
   76    45    75    1
   77    71    75    1
   78    75    76    1
   79    75    77    1
   80    77    78    1
   81    64    79    1
   82    77    79    1
   83    77    80    1
   84    80    81    1
   85    80    82    1
   86    80    83    1
   87    83    84    1
   88    85    86    1
   89    85    87    1
   90    85    88    1
   91    88    89    1
   92    88    90    1
   93    90    91    1
   94    88    92    1
   95    92    93    1
   96    92    94    1
   97    94    95    1
   98    66    96    1
   99    92    96    1
  100    96    97    1
  101    96    98    1
  102    98    99    1
  103    85   100    1
  104    98   100    1
  105    98   101    1
  106   101   102    1
  107   101   103    1
  108   101   104    1
  109   104   105    1
  110   106   107    1
  111    12   108    1
  112   106   108    1
  113   106   109    1
  114   109   110    1
  115   109   111    1
  116   111   112    1
  117   109   113    1
  118   113   114    1
  119   113   115    1
  120   115   116    1
  121    87   117    1
  122   113   117    1
  123   117   118    1
  124   117   119    1
  125   119   120    1
  126   106   121    1
  127   119   121    1
  128   119   122    1
  129   122   123    1
  130   122   124    1
  131   122   125    1
  132   125   126    1
  133   127   128    1
  134   127   129    2
  135   127   130    1
  136   130   131    1
  137   130   132    2
  138   132   133    1
  139   132   134    1
  140   134   135    1
  141   134   136    1
  142   134   137    1
  143   137   138    1
  144   137   139    1
  145   137   140    1
  146   140   141    1
  147   140   142    1
  148   140   143    1
@<TRIPOS>SUBSTRUCTURE
       1 MOL1            1 RESIDUE      1      MOL     
       2 MOL1          143 RESIDUE      1      MOL     
@<SCITEGIC>MOL_PROPERTY
VM2 Rank
SciTegic.value.IntegerValue
1

@<SCITEGIC>MOL_PROPERTY
Conf_Id
SciTegic.value.IntegerValue
22998

@<SCITEGIC>MOL_PROPERTY
Probability
SciTegic.value.DoubleValue
2.00

@<SCITEGIC>MOL_PROPERTY
Sum Probability
SciTegic.value.DoubleValue
2.00

@<SCITEGIC>MOL_PROPERTY
Delta G
SciTegic.value.DoubleValue
0.000

@<SCITEGIC>MOL_PROPERTY
G
SciTegic.value.DoubleValue
487.834

@<SCITEGIC>MOL_PROPERTY
E
SciTegic.value.DoubleValue
306.153

@<SCITEGIC>MOL_PROPERTY
-TS
SciTegic.value.DoubleValue
181.680

@<SCITEGIC>MOL_PROPERTY
U+W
SciTegic.value.DoubleValue
180.065

@<SCITEGIC>MOL_PROPERTY
U
SciTegic.value.DoubleValue
254.785

@<SCITEGIC>MOL_PROPERTY
W
SciTegic.value.DoubleValue
-74.720

@<SCITEGIC>MOL_PROPERTY
W(PB)
SciTegic.value.DoubleValue
-80.851

@<SCITEGIC>MOL_PROPERTY
W(SA)
SciTegic.value.DoubleValue
6.131

@<SCITEGIC>MOL_PROPERTY
Valence
SciTegic.value.DoubleValue
146.373

@<SCITEGIC>MOL_PROPERTY
Coulomb
SciTegic.value.DoubleValue
130.344

@<SCITEGIC>MOL_PROPERTY
VdW
SciTegic.value.DoubleValue
-21.931

@<SCITEGIC>MOL_PROPERTY
VdW6
SciTegic.value.DoubleValue
-171.513

@<SCITEGIC>MOL_PROPERTY
VdW12
SciTegic.value.DoubleValue
149.582

@<SCITEGIC>MOL_PROPERTY
Bond
SciTegic.value.DoubleValue
4.505

@<SCITEGIC>MOL_PROPERTY
Angle
SciTegic.value.DoubleValue
11.401

@<SCITEGIC>MOL_PROPERTY
Pdih
SciTegic.value.DoubleValue
130.445

@<SCITEGIC>MOL_PROPERTY
Idih
SciTegic.value.DoubleValue
0.022

@<SCITEGIC>MOL_PROPERTY
Tether
SciTegic.value.DoubleValue
0.000

@<TRIPOS>MOLECULE
CD_guest-s19_vm2_rndm.mol2 : vm2 host+ligand conformer 2
         143         148           2
SMALL
USER_CHARGES
 
@<TRIPOS>ATOM
       1    C1      16.124208   14.955308   21.150932 C.3        1 MOL1         0.2972
       2    H1      15.037527   14.827166   21.072001 H          1 MOL1         0.0751
       3    O1      16.485690   16.319311   21.451563 O.3        1 MOL1        -0.3740
       4    C2      16.703205   14.035062   22.252969 C.3        1 MOL1         0.1003
       5    H2      16.498026   12.998384   21.955500 H          1 MOL1         0.0783
       6    O2      16.096236   14.287590   23.526360 O.3        1 MOL1        -0.5519
       7    H3      16.626580   13.755429   24.161881 H          1 MOL1         0.3769
       8    C3      18.235798   14.205198   22.359075 C.3        1 MOL1         0.1053
       9    H4      18.444271   15.214504   22.741538 H          1 MOL1         0.0783
      10    O3      18.753152   13.223338   23.264643 O.3        1 MOL1        -0.5519
      11    H5      19.739250   13.302060   23.237642 H          1 MOL1         0.3769
      12    C4      18.925631   14.060014   20.978342 C.3        1 MOL1         0.1018
      13    H6      18.988629   12.993207   20.726591 H          1 MOL1         0.0783
      14    C5      18.187972   14.821669   19.839445 C.3        1 MOL1         0.1043
      15    H7      18.380176   15.895619   19.951413 H          1 MOL1         0.0783
      16    O4      16.760164   14.580987   19.910627 O.3        1 MOL1        -0.3740
      17    C6      18.667683   14.409939   18.430494 C.3        1 MOL1         0.0138
      18    H8      19.738133   14.636183   18.335816 H          1 MOL1         0.0794
      19    H9      18.136590   15.017582   17.685651 H          1 MOL1         0.0794
      20    O5      18.433751   13.018308   18.194427 O.3        1 MOL1        -0.5486
      21    H10     17.474623   12.872270   18.353617 H          1 MOL1         0.3769
      22    C7      14.948743   20.138687   21.945105 C.3        1 MOL1         0.2972
      23    H11     14.294002   21.007325   22.090598 H          1 MOL1         0.0751
      24    O6      16.304922   20.539787   21.665977 O.3        1 MOL1        -0.3740
      25    C8      14.928671   19.257662   23.216694 C.3        1 MOL1         0.1003
      26    H12     13.887724   18.949821   23.380281 H          1 MOL1         0.0783
      27    O7      15.383588   19.992621   24.361326 O.3        1 MOL1        -0.5519
      28    H13     15.524920   19.310576   25.055557 H          1 MOL1         0.3769
      29    C9      15.773093   17.976204   23.028940 C.3        1 MOL1         0.1053
      30    H14     16.831793   18.263989   22.985393 H          1 MOL1         0.0783
      31    O8      15.547881   17.105874   24.143573 O.3        1 MOL1        -0.5519
      32    H15     15.907991   16.219563   23.893384 H          1 MOL1         0.3769
      33    C10     15.410319   17.241444   21.711690 C.3        1 MOL1         0.1018
      34    H16     14.448155   16.729175   21.845420 H          1 MOL1         0.0783
      35    C11     15.323537   18.205123   20.497384 C.3        1 MOL1         0.1043
      36    H17     16.338045   18.539210   20.244846 H          1 MOL1         0.0783
      37    O9      14.484262   19.334810   20.841821 O.3        1 MOL1        -0.3740
      38    C12     14.707742   17.545668   19.246325 C.3        1 MOL1         0.0138
      39    H18     13.669562   17.259218   19.460952 H          1 MOL1         0.0794
      40    H19     15.265494   16.632635   19.001363 H          1 MOL1         0.0794
      41    O10     14.761245   18.453134   18.143110 O.3        1 MOL1        -0.5486
      42    H20     14.437656   19.320586   18.478854 H          1 MOL1         0.3769
      43    C13     18.469756   24.024334   20.874166 C.3        1 MOL1         0.2972
      44    H21     18.759968   25.034562   20.559204 H          1 MOL1         0.0751
      45    O11     19.611281   23.234851   21.258230 O.3        1 MOL1        -0.3740
      46    C14     17.505559   24.096812   22.087237 C.3        1 MOL1         0.1003
      47    H22     16.627304   24.677201   21.776070 H          1 MOL1         0.0783
      48    O12     18.128906   24.743510   23.206355 O.3        1 MOL1        -0.5519
      49    H23     17.515617   24.583106   23.958576 H          1 MOL1         0.3769
      50    C15     17.023794   22.684937   22.498497 C.3        1 MOL1         0.1053
      51    H24     17.889902   22.131987   22.886067 H          1 MOL1         0.0783
      52    O13     16.021379   22.793114   23.517206 O.3        1 MOL1        -0.5519
      53    H25     15.858397   21.873902   23.846524 H          1 MOL1         0.3769
      54    C16     16.461262   21.916606   21.275557 C.3        1 MOL1         0.1018
      55    H26     15.505076   22.364821   20.974259 H          1 MOL1         0.0783
      56    C17     17.428183   21.962310   20.064602 C.3        1 MOL1         0.1043
      57    H27     18.321896   21.374313   20.307296 H          1 MOL1         0.0783
      58    O14     17.792676   23.338967   19.799084 O.3        1 MOL1        -0.3740
      59    C18     16.815419   21.384989   18.769031 C.3        1 MOL1         0.0138
      60    H28     16.598478   20.321255   18.920260 H          1 MOL1         0.0794
      61    H29     17.560534   21.453947   17.965388 H          1 MOL1         0.0794
      62    O15     15.621307   22.081872   18.400656 O.3        1 MOL1        -0.5486
      63    H30     15.868270   23.030621   18.334853 H          1 MOL1         0.3769
      64    C19     23.684315   22.891882   20.998133 C.3        1 MOL1         0.2972
      65    H31     24.768484   22.977920   20.849873 H          1 MOL1         0.0751
      66    O16     23.289276   21.522821   21.228917 O.3        1 MOL1        -0.3740
      67    C20     23.205576   23.788249   22.171315 C.3        1 MOL1         0.1003
      68    H32     23.395714   24.829220   21.880248 H          1 MOL1         0.0783
      69    O17     23.941140   23.508369   23.371697 O.3        1 MOL1        -0.5519
      70    H33     23.645923   22.617434   23.684716 H          1 MOL1         0.3769
      71    C21     21.675400   23.627309   22.374875 C.3        1 MOL1         0.1053
      72    H34     21.480614   22.606866   22.734079 H          1 MOL1         0.0783
      73    O18     21.183155   24.580134   23.326067 O.3        1 MOL1        -0.5519
      74    H35     20.199417   24.484939   23.337236 H          1 MOL1         0.3769
      75    C22     20.903654   23.831294   21.045552 C.3        1 MOL1         0.1018
      76    H36     20.832809   24.910525   20.856167 H          1 MOL1         0.0783
      77    C23     21.555738   23.131557   19.818184 C.3        1 MOL1         0.1043
      78    H37     21.345012   22.056261   19.877830 H          1 MOL1         0.0783
      79    O19     22.989223   23.347401   19.819720 O.3        1 MOL1        -0.3740
      80    C24     21.014222   23.638537   18.462942 C.3        1 MOL1         0.0138
      81    H38     19.943590   23.409526   18.392362 H          1 MOL1         0.0794
      82    H39     21.517509   23.089588   17.655886 H          1 MOL1         0.0794
      83    O20     21.230273   25.045201   18.314525 O.3        1 MOL1        -0.5486
      84    H40     22.196699   25.186662   18.426519 H          1 MOL1         0.3769
      85    C25     24.645262   17.784282   22.321404 C.3        1 MOL1         0.2972
      86    H41     25.212848   16.917945   22.682719 H          1 MOL1         0.0751
      87    O21     23.470014   17.380254   21.584561 O.3        1 MOL1        -0.3740
      88    C26     24.203560   18.667596   23.515770 C.3        1 MOL1         0.1003
      89    H42     25.114500   19.007769   24.024903 H          1 MOL1         0.0783
      90    O22     23.417946   17.889792   24.437167 O.3        1 MOL1        -0.5519
      91    H43     22.707901   18.474065   24.812190 H          1 MOL1         0.3769
      92    C27     23.447255   19.927475   23.018285 C.3        1 MOL1         0.1053
      93    H44     22.488555   19.612164   22.590830 H          1 MOL1         0.0783
      94    O23     23.226143   20.823643   24.114740 O.3        1 MOL1        -0.5519
      95    H45     22.509891   20.421045   24.671524 H          1 MOL1         0.3769
      96    C28     24.232820   20.667901   21.903313 C.3        1 MOL1         0.1018
      97    H46     25.048602   21.239327   22.365554 H          1 MOL1         0.0783
      98    C29     24.805442   19.706924   20.824870 C.3        1 MOL1         0.1043
      99    H47     23.970520   19.339699   20.213919 H          1 MOL1         0.0783
     100    O24     25.472819   18.589671   21.457277 O.3        1 MOL1        -0.3740
     101    C30     25.816662   20.382719   19.872131 C.3        1 MOL1         0.0138
     102    H48     25.299727   21.160994   19.295218 H          1 MOL1         0.0794
     103    H49     26.180835   19.633649   19.156185 H          1 MOL1         0.0794
     104    O25     26.911676   20.950976   20.596451 O.3        1 MOL1        -0.5486
     105    H50     27.308732   20.216086   21.115026 H          1 MOL1         0.3769
     106    C31     21.369338   13.850361   20.795989 C.3        1 MOL1         0.2972
     107    H51     21.078906   12.838090   20.488199 H          1 MOL1         0.0751
     108    O26     20.224950   14.664256   21.119273 O.3        1 MOL1        -0.3740
     109    C32     22.299131   13.797967   22.035480 C.3        1 MOL1         0.1003
     110    H52     23.199726   13.240541   21.746740 H          1 MOL1         0.0783
     111    O27     21.672035   13.133850   23.140267 O.3        1 MOL1        -0.5519
     112    H53     22.271345   13.308194   23.901281 H          1 MOL1         0.3769
     113    C33     22.736154   15.221252   22.456650 C.3        1 MOL1         0.1053
     114    H54     21.841675   15.772842   22.778319 H          1 MOL1         0.0783
     115    O28     23.657963   15.121293   23.549107 O.3        1 MOL1        -0.5519
     116    H55     23.645650   16.007239   23.990403 H          1 MOL1         0.3769
     117    C34     23.366099   15.979850   21.254307 C.3        1 MOL1         0.1018
     118    H56     24.351298   15.554933   21.020795 H          1 MOL1         0.0783
     119    C35     22.465822   15.887527   19.991094 C.3        1 MOL1         0.1043
     120    H57     21.561566   16.482519   20.166861 H          1 MOL1         0.0783
     121    O29     22.099132   14.507268   19.737668 O.3        1 MOL1        -0.3740
     122    C36     23.147831   16.432588   18.717071 C.3        1 MOL1         0.0138
     123    H58     23.410751   17.486768   18.873394 H          1 MOL1         0.0794
     124    H59     22.427995   16.393312   17.888714 H          1 MOL1         0.0794
     125    O30     24.316958   15.673761   18.394756 O.3        1 MOL1        -0.5486
     126    H60     24.028189   14.734880   18.355190 H          1 MOL1         0.3769
     127    C1      20.094604   19.853133   24.982344 C.2        1 MOL1         0.6173
     128    O1      19.507012   20.670067   25.662714 O.co2      1 MOL1        -0.6755
     129    O2      21.166193   19.366979   25.302607 O.co2      1 MOL1        -0.6755
     130    C2      19.509397   19.513582   23.657541 C.2        1 MOL1        -0.1504
     131    H1      18.605351   20.050756   23.385214 H          1 MOL1         0.0814
     132    C3      20.050088   18.611467   22.808952 C.2        1 MOL1        -0.1394
     133    H2      20.946347   18.056447   23.080357 H          1 MOL1         0.0817
     134    C4      19.503343   18.315666   21.433627 C.3        1 MOL1        -0.1849
     135    H3      18.444034   18.592446   21.373354 H          1 MOL1         0.0736
     136    H4      19.561045   17.237972   21.252272 H          1 MOL1         0.0736
     137    C5      20.297896   19.073152   20.351939 C.3        1 MOL1        -0.1866
     138    H5      20.221266   20.151871   20.536413 H          1 MOL1         0.0738
     139    H6      21.363698   18.821156   20.427924 H          1 MOL1         0.0738
     140    C6      19.786916   18.744590   18.935090 C.3        1 MOL1        -0.2879
     141    H7      19.905861   17.676492   18.713393 H          1 MOL1         0.0750
     142    H8      18.723993   18.996213   18.833308 H          1 MOL1         0.0750
     143    H9      20.346181   19.312996   18.181131 H          1 MOL1         0.0750
@<TRIPOS>BOND
    1     1     2    1
    2     1     3    1
    3     1     4    1
    4     4     5    1
    5     4     6    1
    6     6     7    1
    7     4     8    1
    8     8     9    1
    9     8    10    1
   10    10    11    1
   11     8    12    1
   12    12    13    1
   13    12    14    1
   14    14    15    1
   15     1    16    1
   16    14    16    1
   17    14    17    1
   18    17    18    1
   19    17    19    1
   20    17    20    1
   21    20    21    1
   22    22    23    1
   23    22    24    1
   24    22    25    1
   25    25    26    1
   26    25    27    1
   27    27    28    1
   28    25    29    1
   29    29    30    1
   30    29    31    1
   31    31    32    1
   32     3    33    1
   33    29    33    1
   34    33    34    1
   35    33    35    1
   36    35    36    1
   37    22    37    1
   38    35    37    1
   39    35    38    1
   40    38    39    1
   41    38    40    1
   42    38    41    1
   43    41    42    1
   44    43    44    1
   45    43    45    1
   46    43    46    1
   47    46    47    1
   48    46    48    1
   49    48    49    1
   50    46    50    1
   51    50    51    1
   52    50    52    1
   53    52    53    1
   54    24    54    1
   55    50    54    1
   56    54    55    1
   57    54    56    1
   58    56    57    1
   59    43    58    1
   60    56    58    1
   61    56    59    1
   62    59    60    1
   63    59    61    1
   64    59    62    1
   65    62    63    1
   66    64    65    1
   67    64    66    1
   68    64    67    1
   69    67    68    1
   70    67    69    1
   71    69    70    1
   72    67    71    1
   73    71    72    1
   74    71    73    1
   75    73    74    1
   76    45    75    1
   77    71    75    1
   78    75    76    1
   79    75    77    1
   80    77    78    1
   81    64    79    1
   82    77    79    1
   83    77    80    1
   84    80    81    1
   85    80    82    1
   86    80    83    1
   87    83    84    1
   88    85    86    1
   89    85    87    1
   90    85    88    1
   91    88    89    1
   92    88    90    1
   93    90    91    1
   94    88    92    1
   95    92    93    1
   96    92    94    1
   97    94    95    1
   98    66    96    1
   99    92    96    1
  100    96    97    1
  101    96    98    1
  102    98    99    1
  103    85   100    1
  104    98   100    1
  105    98   101    1
  106   101   102    1
  107   101   103    1
  108   101   104    1
  109   104   105    1
  110   106   107    1
  111    12   108    1
  112   106   108    1
  113   106   109    1
  114   109   110    1
  115   109   111    1
  116   111   112    1
  117   109   113    1
  118   113   114    1
  119   113   115    1
  120   115   116    1
  121    87   117    1
  122   113   117    1
  123   117   118    1
  124   117   119    1
  125   119   120    1
  126   106   121    1
  127   119   121    1
  128   119   122    1
  129   122   123    1
  130   122   124    1
  131   122   125    1
  132   125   126    1
  133   127   128    1
  134   127   129    2
  135   127   130    1
  136   130   131    1
  137   130   132    2
  138   132   133    1
  139   132   134    1
  140   134   135    1
  141   134   136    1
  142   134   137    1
  143   137   138    1
  144   137   139    1
  145   137   140    1
  146   140   141    1
  147   140   142    1
  148   140   143    1
@<TRIPOS>SUBSTRUCTURE
       1 MOL1            1 RESIDUE      1      MOL     
       2 MOL1          143 RESIDUE      1      MOL     
@<SCITEGIC>MOL_PROPERTY
VM2 Rank
SciTegic.value.IntegerValue
2

@<SCITEGIC>MOL_PROPERTY
Conf_Id
SciTegic.value.IntegerValue
25054

@<SCITEGIC>MOL_PROPERTY
Probability
SciTegic.value.DoubleValue
1.43

@<SCITEGIC>MOL_PROPERTY
Sum Probability
SciTegic.value.DoubleValue
3.43

@<SCITEGIC>MOL_PROPERTY
Delta G
SciTegic.value.DoubleValue
0.199

@<SCITEGIC>MOL_PROPERTY
G
SciTegic.value.DoubleValue
488.033

@<SCITEGIC>MOL_PROPERTY
E
SciTegic.value.DoubleValue
305.433

@<SCITEGIC>MOL_PROPERTY
-TS
SciTegic.value.DoubleValue
182.599

@<SCITEGIC>MOL_PROPERTY
U+W
SciTegic.value.DoubleValue
179.345

@<SCITEGIC>MOL_PROPERTY
U
SciTegic.value.DoubleValue
253.244

@<SCITEGIC>MOL_PROPERTY
W
SciTegic.value.DoubleValue
-73.899

@<SCITEGIC>MOL_PROPERTY
W(PB)
SciTegic.value.DoubleValue
-79.918

@<SCITEGIC>MOL_PROPERTY
W(SA)
SciTegic.value.DoubleValue
6.019

@<SCITEGIC>MOL_PROPERTY
Valence
SciTegic.value.DoubleValue
146.086

@<SCITEGIC>MOL_PROPERTY
Coulomb
SciTegic.value.DoubleValue
130.733

@<SCITEGIC>MOL_PROPERTY
VdW
SciTegic.value.DoubleValue
-23.575

@<SCITEGIC>MOL_PROPERTY
VdW6
SciTegic.value.DoubleValue
-174.408

@<SCITEGIC>MOL_PROPERTY
VdW12
SciTegic.value.DoubleValue
150.833

@<SCITEGIC>MOL_PROPERTY
Bond
SciTegic.value.DoubleValue
4.504

@<SCITEGIC>MOL_PROPERTY
Angle
SciTegic.value.DoubleValue
11.655

@<SCITEGIC>MOL_PROPERTY
Pdih
SciTegic.value.DoubleValue
129.914

@<SCITEGIC>MOL_PROPERTY
Idih
SciTegic.value.DoubleValue
0.014

@<SCITEGIC>MOL_PROPERTY
Tether
SciTegic.value.DoubleValue
0.000

@<TRIPOS>MOLECULE
CD_guest-s19_vm2_rndm.mol2 : vm2 host+ligand conformer 3
         143         148           2
SMALL
USER_CHARGES
 
@<TRIPOS>ATOM
       1    C1      16.193190   15.035479   20.903170 C.3        1 MOL1         0.2972
       2    H1      15.112464   14.933994   20.740300 H          1 MOL1         0.0751
       3    O1      16.550731   16.372635   21.308199 O.3        1 MOL1        -0.3740
       4    C2      16.684575   14.048325   21.990658 C.3        1 MOL1         0.1003
       5    H2      16.480523   13.032224   21.628597 H          1 MOL1         0.0783
       6    O2      16.003897   14.252162   23.236074 O.3        1 MOL1        -0.5519
       7    H3      16.473206   13.667399   23.873099 H          1 MOL1         0.3769
       8    C3      18.210666   14.183288   22.202366 C.3        1 MOL1         0.1053
       9    H4      18.407448   15.165809   22.654448 H          1 MOL1         0.0783
      10    O3      18.656960   13.144735   23.082241 O.3        1 MOL1        -0.5519
      11    H5      19.637638   13.247455   23.168322 H          1 MOL1         0.3769
      12    C4      18.988575   14.106585   20.863248 C.3        1 MOL1         0.1018
      13    H6      19.053646   13.056533   20.549462 H          1 MOL1         0.0783
      14    C5      18.338665   14.947075   19.727317 C.3        1 MOL1         0.1043
      15    H7      18.531602   16.009020   19.918016 H          1 MOL1         0.0783
      16    O4      16.908036   14.722031   19.688570 O.3        1 MOL1        -0.3740
      17    C6      18.911173   14.618847   18.331338 C.3        1 MOL1         0.0138
      18    H8      19.986994   14.837728   18.326717 H          1 MOL1         0.0794
      19    H9      18.439160   15.279477   17.591944 H          1 MOL1         0.0794
      20    O5      18.683453   13.248115   17.990502 O.3        1 MOL1        -0.5486
      21    H10     17.714664   13.103604   18.074395 H          1 MOL1         0.3769
      22    C7      14.999826   20.142814   21.942272 C.3        1 MOL1         0.2972
      23    H11     14.368057   21.019134   22.135548 H          1 MOL1         0.0751
      24    O6      16.338964   20.528487   21.567243 O.3        1 MOL1        -0.3740
      25    C8      15.058347   19.253298   23.207624 C.3        1 MOL1         0.1003
      26    H12     14.031053   18.935817   23.428955 H          1 MOL1         0.0783
      27    O7      15.573513   19.983383   24.329153 O.3        1 MOL1        -0.5519
      28    H13     15.775765   19.296779   25.003578 H          1 MOL1         0.3769
      29    C9      15.900392   17.980465   22.960144 C.3        1 MOL1         0.1053
      30    H14     16.950497   18.279120   22.854727 H          1 MOL1         0.0783
      31    O8      15.756757   17.096427   24.077823 O.3        1 MOL1        -0.5519
      32    H15     16.040128   16.201304   23.769335 H          1 MOL1         0.3769
      33    C10     15.465068   17.248431   21.664395 C.3        1 MOL1         0.1018
      34    H16     14.541134   16.692634   21.873420 H          1 MOL1         0.0783
      35    C11     15.245874   18.211776   20.464538 C.3        1 MOL1         0.1043
      36    H17     16.229861   18.556300   20.121330 H          1 MOL1         0.0783
      37    O9      14.445006   19.347264   20.874598 O.3        1 MOL1        -0.3740
      38    C12     14.537182   17.549101   19.262306 C.3        1 MOL1         0.0138
      39    H18     15.179794   16.755537   18.858797 H          1 MOL1         0.0794
      40    H19     14.410434   18.299932   18.470752 H          1 MOL1         0.0794
      41    O10     13.267769   17.010658   19.643719 O.3        1 MOL1        -0.5486
      42    H20     12.753772   17.760054   20.018962 H          1 MOL1         0.3769
      43    C13     18.523549   24.018208   20.833862 C.3        1 MOL1         0.2972
      44    H21     18.818119   25.030245   20.529003 H          1 MOL1         0.0751
      45    O11     19.660574   23.224864   21.223522 O.3        1 MOL1        -0.3740
      46    C14     17.544016   24.085042   22.034552 C.3        1 MOL1         0.1003
      47    H22     16.671458   24.669869   21.715766 H          1 MOL1         0.0783
      48    O12     18.154614   24.723462   23.165316 O.3        1 MOL1        -0.5519
      49    H23     17.533226   24.556247   23.909417 H          1 MOL1         0.3769
      50    C15     17.052389   22.672458   22.431219 C.3        1 MOL1         0.1053
      51    H24     17.913727   22.115842   22.823295 H          1 MOL1         0.0783
      52    O13     16.044252   22.781351   23.443971 O.3        1 MOL1        -0.5519
      53    H25     15.916222   21.869223   23.806830 H          1 MOL1         0.3769
      54    C16     16.499224   21.911711   21.197210 C.3        1 MOL1         0.1018
      55    H26     15.545442   22.359045   20.886806 H          1 MOL1         0.0783
      56    C17     17.481149   21.965706   19.997993 C.3        1 MOL1         0.1043
      57    H27     18.368235   21.368622   20.244079 H          1 MOL1         0.0783
      58    O14     17.858003   23.342163   19.746897 O.3        1 MOL1        -0.3740
      59    C18     16.876448   21.409463   18.689819 C.3        1 MOL1         0.0138
      60    H28     16.587420   20.362539   18.842188 H          1 MOL1         0.0794
      61    H29     17.649765   21.426437   17.910315 H          1 MOL1         0.0794
      62    O15     15.742034   22.178052   18.279170 O.3        1 MOL1        -0.5486
      63    H30     16.044535   23.113009   18.251979 H          1 MOL1         0.3769
      64    C19     23.740067   22.893394   21.021189 C.3        1 MOL1         0.2972
      65    H31     24.825870   22.981879   20.887141 H          1 MOL1         0.0751
      66    O16     23.346715   21.524122   21.254962 O.3        1 MOL1        -0.3740
      67    C20     23.241923   23.798488   22.179714 C.3        1 MOL1         0.1003
      68    H32     23.429776   24.837444   21.880070 H          1 MOL1         0.0783
      69    O17     23.964437   23.536649   23.391883 O.3        1 MOL1        -0.5519
      70    H33     23.660016   22.653507   23.717698 H          1 MOL1         0.3769
      71    C21     21.710061   23.631462   22.365569 C.3        1 MOL1         0.1053
      72    H34     21.514898   22.612678   22.729015 H          1 MOL1         0.0783
      73    O18     21.201996   24.588671   23.303929 O.3        1 MOL1        -0.5519
      74    H35     20.218944   24.485426   23.308180 H          1 MOL1         0.3769
      75    C22     20.955049   23.822983   21.024907 C.3        1 MOL1         0.1018
      76    H36     20.884532   24.900628   20.826675 H          1 MOL1         0.0783
      77    C23     21.626620   23.117826   19.811016 C.3        1 MOL1         0.1043
      78    H37     21.419460   22.042350   19.874134 H          1 MOL1         0.0783
      79    O19     23.059480   23.338533   19.830212 O.3        1 MOL1        -0.3740
      80    C24     21.100718   23.613934   18.445726 C.3        1 MOL1         0.0138
      81    H38     20.031246   23.382809   18.364413 H          1 MOL1         0.0794
      82    H39     21.614327   23.059695   17.648848 H          1 MOL1         0.0794
      83    O20     21.316620   25.019796   18.289550 O.3        1 MOL1        -0.5486
      84    H40     22.281313   25.163503   18.413007 H          1 MOL1         0.3769
      85    C25     24.670285   17.801311   22.448319 C.3        1 MOL1         0.2972
      86    H41     25.228571   16.943187   22.842721 H          1 MOL1         0.0751
      87    O21     23.519483   17.378648   21.683602 O.3        1 MOL1        -0.3740
      88    C26     24.198426   18.708993   23.613372 C.3        1 MOL1         0.1003
      89    H42     25.096907   19.058503   24.138115 H          1 MOL1         0.0783
      90    O22     23.389432   17.952601   24.531770 O.3        1 MOL1        -0.5519
      91    H43     22.679639   18.548792   24.887929 H          1 MOL1         0.3769
      92    C27     23.457081   19.960029   23.074652 C.3        1 MOL1         0.1053
      93    H44     22.510552   19.638436   22.626530 H          1 MOL1         0.0783
      94    O23     23.207381   20.873491   24.150529 O.3        1 MOL1        -0.5519
      95    H45     22.476663   20.480773   24.695446 H          1 MOL1         0.3769
      96    C28     24.272016   20.680126   21.967924 C.3        1 MOL1         0.1018
      97    H46     25.077453   21.258300   22.439750 H          1 MOL1         0.0783
      98    C29     24.868418   19.698458   20.921323 C.3        1 MOL1         0.1043
      99    H47     24.047082   19.322890   20.296802 H          1 MOL1         0.0783
     100    O24     25.518621   18.589781   21.588147 O.3        1 MOL1        -0.3740
     101    C30     25.903275   20.357211   19.982081 C.3        1 MOL1         0.0138
     102    H48     25.402381   21.129567   19.383413 H          1 MOL1         0.0794
     103    H49     26.280521   19.597481   19.284524 H          1 MOL1         0.0794
     104    O25     26.984100   20.931187   20.722931 O.3        1 MOL1        -0.5486
     105    H50     27.364690   20.202927   21.262767 H          1 MOL1         0.3769
     106    C31     21.433503   13.839983   20.903645 C.3        1 MOL1         0.2972
     107    H51     21.148770   12.819376   20.619097 H          1 MOL1         0.0751
     108    O26     20.283487   14.679664   21.123144 O.3        1 MOL1        -0.3740
     109    C32     22.282547   13.824670   22.199594 C.3        1 MOL1         0.1003
     110    H52     23.189183   13.242339   21.989695 H          1 MOL1         0.0783
     111    O27     21.576445   13.214084   23.287791 O.3        1 MOL1        -0.5519
     112    H53     22.128836   13.410680   24.078140 H          1 MOL1         0.3769
     113    C33     22.718577   15.256678   22.591018 C.3        1 MOL1         0.1053
     114    H54     21.818081   15.829181   22.853796 H          1 MOL1         0.0783
     115    O28     23.591453   15.178528   23.724343 O.3        1 MOL1        -0.5519
     116    H55     23.578826   16.078878   24.135531 H          1 MOL1         0.3769
     117    C34     23.415777   15.968461   21.396864 C.3        1 MOL1         0.1018
     118    H56     24.406859   15.525671   21.230785 H          1 MOL1         0.0783
     119    C35     22.591065   15.838129   20.087094 C.3        1 MOL1         0.1043
     120    H57     21.685757   16.452467   20.172017 H          1 MOL1         0.0783
     121    O29     22.241117   14.446557   19.872093 O.3        1 MOL1        -0.3740
     122    C36     23.385195   16.312562   18.852479 C.3        1 MOL1         0.0138
     123    H58     24.294751   15.705655   18.751263 H          1 MOL1         0.0794
     124    H59     23.693291   17.355858   18.999841 H          1 MOL1         0.0794
     125    O30     22.577760   16.203129   17.678598 O.3        1 MOL1        -0.5486
     126    H60     22.236053   15.282040   17.672348 H          1 MOL1         0.3769
     127    C1      20.054632   19.906766   24.980489 C.2        1 MOL1         0.6173
     128    O1      19.434402   20.721616   25.633845 O.co2      1 MOL1        -0.6755
     129    O2      21.124653   19.442418   25.336680 O.co2      1 MOL1        -0.6755
     130    C2      19.516771   19.546201   23.641293 C.2        1 MOL1        -0.1504
     131    H1      18.617802   20.071156   23.332342 H          1 MOL1         0.0814
     132    C3      20.094943   18.640914   22.821584 C.2        1 MOL1        -0.1394
     133    H2      20.985060   18.096674   23.131032 H          1 MOL1         0.0817
     134    C4      19.605709   18.329605   21.428267 C.3        1 MOL1        -0.1849
     135    H3      18.539032   18.563860   21.329981 H          1 MOL1         0.0736
     136    H4      19.715915   17.256588   21.246855 H          1 MOL1         0.0736
     137    C5      20.404733   19.121450   20.375915 C.3        1 MOL1        -0.1866
     138    H5      20.306679   20.194362   20.582339 H          1 MOL1         0.0738
     139    H6      21.472857   18.881876   20.462130 H          1 MOL1         0.0738
     140    C6      19.921222   18.816517   18.944504 C.3        1 MOL1        -0.2879
     141    H7      20.074925   17.758058   18.697861 H          1 MOL1         0.0750
     142    H8      18.853852   19.043303   18.832672 H          1 MOL1         0.0750
     143    H9      20.477790   19.416650   18.213478 H          1 MOL1         0.0750
@<TRIPOS>BOND
    1     1     2    1
    2     1     3    1
    3     1     4    1
    4     4     5    1
    5     4     6    1
    6     6     7    1
    7     4     8    1
    8     8     9    1
    9     8    10    1
   10    10    11    1
   11     8    12    1
   12    12    13    1
   13    12    14    1
   14    14    15    1
   15     1    16    1
   16    14    16    1
   17    14    17    1
   18    17    18    1
   19    17    19    1
   20    17    20    1
   21    20    21    1
   22    22    23    1
   23    22    24    1
   24    22    25    1
   25    25    26    1
   26    25    27    1
   27    27    28    1
   28    25    29    1
   29    29    30    1
   30    29    31    1
   31    31    32    1
   32     3    33    1
   33    29    33    1
   34    33    34    1
   35    33    35    1
   36    35    36    1
   37    22    37    1
   38    35    37    1
   39    35    38    1
   40    38    39    1
   41    38    40    1
   42    38    41    1
   43    41    42    1
   44    43    44    1
   45    43    45    1
   46    43    46    1
   47    46    47    1
   48    46    48    1
   49    48    49    1
   50    46    50    1
   51    50    51    1
   52    50    52    1
   53    52    53    1
   54    24    54    1
   55    50    54    1
   56    54    55    1
   57    54    56    1
   58    56    57    1
   59    43    58    1
   60    56    58    1
   61    56    59    1
   62    59    60    1
   63    59    61    1
   64    59    62    1
   65    62    63    1
   66    64    65    1
   67    64    66    1
   68    64    67    1
   69    67    68    1
   70    67    69    1
   71    69    70    1
   72    67    71    1
   73    71    72    1
   74    71    73    1
   75    73    74    1
   76    45    75    1
   77    71    75    1
   78    75    76    1
   79    75    77    1
   80    77    78    1
   81    64    79    1
   82    77    79    1
   83    77    80    1
   84    80    81    1
   85    80    82    1
   86    80    83    1
   87    83    84    1
   88    85    86    1
   89    85    87    1
   90    85    88    1
   91    88    89    1
   92    88    90    1
   93    90    91    1
   94    88    92    1
   95    92    93    1
   96    92    94    1
   97    94    95    1
   98    66    96    1
   99    92    96    1
  100    96    97    1
  101    96    98    1
  102    98    99    1
  103    85   100    1
  104    98   100    1
  105    98   101    1
  106   101   102    1
  107   101   103    1
  108   101   104    1
  109   104   105    1
  110   106   107    1
  111    12   108    1
  112   106   108    1
  113   106   109    1
  114   109   110    1
  115   109   111    1
  116   111   112    1
  117   109   113    1
  118   113   114    1
  119   113   115    1
  120   115   116    1
  121    87   117    1
  122   113   117    1
  123   117   118    1
  124   117   119    1
  125   119   120    1
  126   106   121    1
  127   119   121    1
  128   119   122    1
  129   122   123    1
  130   122   124    1
  131   122   125    1
  132   125   126    1
  133   127   128    1
  134   127   129    2
  135   127   130    1
  136   130   131    1
  137   130   132    2
  138   132   133    1
  139   132   134    1
  140   134   135    1
  141   134   136    1
  142   134   137    1
  143   137   138    1
  144   137   139    1
  145   137   140    1
  146   140   141    1
  147   140   142    1
  148   140   143    1
@<TRIPOS>SUBSTRUCTURE
       1 MOL1            1 RESIDUE      1      MOL     
       2 MOL1          143 RESIDUE      1      MOL     
@<SCITEGIC>MOL_PROPERTY
VM2 Rank
SciTegic.value.IntegerValue
3

@<SCITEGIC>MOL_PROPERTY
Conf_Id
SciTegic.value.IntegerValue
24363

@<SCITEGIC>MOL_PROPERTY
Probability
SciTegic.value.DoubleValue
1.37

@<SCITEGIC>MOL_PROPERTY
Sum Probability
SciTegic.value.DoubleValue
4.80

@<SCITEGIC>MOL_PROPERTY
Delta G
SciTegic.value.DoubleValue
0.223

@<SCITEGIC>MOL_PROPERTY
G
SciTegic.value.DoubleValue
488.056

@<SCITEGIC>MOL_PROPERTY
E
SciTegic.value.DoubleValue
305.365

@<SCITEGIC>MOL_PROPERTY
-TS
SciTegic.value.DoubleValue
182.691

@<SCITEGIC>MOL_PROPERTY
U+W
SciTegic.value.DoubleValue
179.277

@<SCITEGIC>MOL_PROPERTY
U
SciTegic.value.DoubleValue
252.908

@<SCITEGIC>MOL_PROPERTY
W
SciTegic.value.DoubleValue
-73.631

@<SCITEGIC>MOL_PROPERTY
W(PB)
SciTegic.value.DoubleValue
-79.630

@<SCITEGIC>MOL_PROPERTY
W(SA)
SciTegic.value.DoubleValue
5.999

@<SCITEGIC>MOL_PROPERTY
Valence
SciTegic.value.DoubleValue
145.722

@<SCITEGIC>MOL_PROPERTY
Coulomb
SciTegic.value.DoubleValue
130.787

@<SCITEGIC>MOL_PROPERTY
VdW
SciTegic.value.DoubleValue
-23.601

@<SCITEGIC>MOL_PROPERTY
VdW6
SciTegic.value.DoubleValue
-174.798

@<SCITEGIC>MOL_PROPERTY
VdW12
SciTegic.value.DoubleValue
151.197

@<SCITEGIC>MOL_PROPERTY
Bond
SciTegic.value.DoubleValue
4.532

@<SCITEGIC>MOL_PROPERTY
Angle
SciTegic.value.DoubleValue
11.650

@<SCITEGIC>MOL_PROPERTY
Pdih
SciTegic.value.DoubleValue
129.523

@<SCITEGIC>MOL_PROPERTY
Idih
SciTegic.value.DoubleValue
0.016

@<SCITEGIC>MOL_PROPERTY
Tether
SciTegic.value.DoubleValue
0.000

@<TRIPOS>MOLECULE
CD_guest-s19_vm2_rndm.mol2 : vm2 host+ligand conformer 4
         143         148           2
SMALL
USER_CHARGES
 
@<TRIPOS>ATOM
       1    C1      16.139459   15.031935   20.981416 C.3        1 MOL1         0.2972
       2    H1      15.053077   14.927885   20.864374 H          1 MOL1         0.0751
       3    O1      16.514813   16.381891   21.324967 O.3        1 MOL1        -0.3740
       4    C2      16.672147   14.079113   22.079753 C.3        1 MOL1         0.1003
       5    H2      16.460238   13.052228   21.754427 H          1 MOL1         0.0783
       6    O2      16.034756   14.314518   23.341881 O.3        1 MOL1        -0.5519
       7    H3      16.530818   13.751015   23.977954 H          1 MOL1         0.3769
       8    C3      18.203983   14.225206   22.232029 C.3        1 MOL1         0.1053
       9    H4      18.414563   15.223163   22.642158 H          1 MOL1         0.0783
      10    O3      18.684382   13.218088   23.130297 O.3        1 MOL1        -0.5519
      11    H5      19.670905   13.295813   23.143767 H          1 MOL1         0.3769
      12    C4      18.932585   14.101269   20.869069 C.3        1 MOL1         0.1018
      13    H6      18.994267   13.039137   20.598017 H          1 MOL1         0.0783
      14    C5      18.236806   14.891084   19.723284 C.3        1 MOL1         0.1043
      15    H7      18.440258   15.959968   19.856537 H          1 MOL1         0.0783
      16    O4      16.804803   14.672418   19.751752 O.3        1 MOL1        -0.3740
      17    C6      18.749070   14.493566   18.321666 C.3        1 MOL1         0.0138
      18    H8      19.825589   14.701955   18.260877 H          1 MOL1         0.0794
      19    H9      18.250162   15.122418   17.572288 H          1 MOL1         0.0794
      20    O5      18.497467   13.110406   18.055951 O.3        1 MOL1        -0.5486
      21    H10     17.532042   12.978866   18.187526 H          1 MOL1         0.3769
      22    C7      14.990340   20.169918   21.948989 C.3        1 MOL1         0.2972
      23    H11     14.363454   21.049245   22.144409 H          1 MOL1         0.0751
      24    O6      16.321526   20.549054   21.541032 O.3        1 MOL1        -0.3740
      25    C8      15.076700   19.295356   23.223020 C.3        1 MOL1         0.1003
      26    H12     14.054772   18.978892   23.469273 H          1 MOL1         0.0783
      27    O7      15.613364   20.037886   24.325963 O.3        1 MOL1        -0.5519
      28    H13     15.840945   19.357404   24.998676 H          1 MOL1         0.3769
      29    C9      15.915168   18.020780   22.971874 C.3        1 MOL1         0.1053
      30    H14     16.961782   18.317963   22.832406 H          1 MOL1         0.0783
      31    O8      15.801751   17.156169   24.107831 O.3        1 MOL1        -0.5519
      32    H15     16.077196   16.255434   23.808575 H          1 MOL1         0.3769
      33    C10     15.444786   17.270538   21.698879 C.3        1 MOL1         0.1018
      34    H16     14.522613   16.724514   21.939012 H          1 MOL1         0.0783
      35    C11     15.200250   18.218224   20.491387 C.3        1 MOL1         0.1043
      36    H17     16.176297   18.556181   20.120076 H          1 MOL1         0.0783
      37    O9      14.411406   19.361449   20.903748 O.3        1 MOL1        -0.3740
      38    C12     14.462364   17.538888   19.316363 C.3        1 MOL1         0.0138
      39    H18     15.091659   16.733996   18.914125 H          1 MOL1         0.0794
      40    H19     14.323294   18.276226   18.514287 H          1 MOL1         0.0794
      41    O10     13.198218   17.015235   19.734263 O.3        1 MOL1        -0.5486
      42    H20     12.697651   17.774061   20.108731 H          1 MOL1         0.3769
      43    C13     18.514357   24.034093   20.813741 C.3        1 MOL1         0.2972
      44    H21     18.815210   25.042949   20.504377 H          1 MOL1         0.0751
      45    O11     19.644506   23.241346   21.224259 O.3        1 MOL1        -0.3740
      46    C14     17.520225   24.111650   22.001508 C.3        1 MOL1         0.1003
      47    H22     16.652425   24.694995   21.667374 H          1 MOL1         0.0783
      48    O12     18.117768   24.758040   23.134754 O.3        1 MOL1        -0.5519
      49    H23     17.484815   24.601259   23.871316 H          1 MOL1         0.3769
      50    C15     17.022076   22.702738   22.403449 C.3        1 MOL1         0.1053
      51    H24     17.877926   22.148736   22.810907 H          1 MOL1         0.0783
      52    O13     16.003417   22.822968   23.404125 O.3        1 MOL1        -0.5519
      53    H25     15.886717   21.918293   23.788871 H          1 MOL1         0.3769
      54    C16     16.483005   21.931596   21.168717 C.3        1 MOL1         0.1018
      55    H26     15.531716   22.374170   20.844207 H          1 MOL1         0.0783
      56    C17     17.478593   21.977430   19.980605 C.3        1 MOL1         0.1043
      57    H27     18.362115   21.381365   20.241474 H          1 MOL1         0.0783
      58    O14     17.860387   23.351336   19.723898 O.3        1 MOL1        -0.3740
      59    C18     16.888326   21.410920   18.670264 C.3        1 MOL1         0.0138
      60    H28     16.596914   20.365278   18.828480 H          1 MOL1         0.0794
      61    H29     17.670367   21.421029   17.899397 H          1 MOL1         0.0794
      62    O15     15.759135   22.176811   18.240564 O.3        1 MOL1        -0.5486
      63    H30     16.062488   23.111362   18.209196 H          1 MOL1         0.3769
      64    C19     23.724539   22.906741   21.067333 C.3        1 MOL1         0.2972
      65    H31     24.812179   22.994764   20.948586 H          1 MOL1         0.0751
      66    O16     23.324523   21.534638   21.271633 O.3        1 MOL1        -0.3740
      67    C20     23.214305   23.790266   22.236895 C.3        1 MOL1         0.1003
      68    H32     23.408267   24.834436   21.960135 H          1 MOL1         0.0783
      69    O17     23.921637   23.502386   23.452135 O.3        1 MOL1        -0.5519
      70    H33     23.619753   22.609122   23.751681 H          1 MOL1         0.3769
      71    C21     21.679794   23.623506   22.400424 C.3        1 MOL1         0.1053
      72    H34     21.477822   22.598697   22.742810 H          1 MOL1         0.0783
      73    O18     21.162234   24.564870   23.349540 O.3        1 MOL1        -0.5519
      74    H35     20.178364   24.472558   23.330770 H          1 MOL1         0.3769
      75    C22     20.941765   23.842161   21.054292 C.3        1 MOL1         0.1018
      76    H36     20.873877   24.923720   20.877490 H          1 MOL1         0.0783
      77    C23     21.627617   23.160783   19.834740 C.3        1 MOL1         0.1043
      78    H37     21.417437   22.084832   19.873331 H          1 MOL1         0.0783
      79    O19     23.060457   23.376871   19.876733 O.3        1 MOL1        -0.3740
      80    C24     21.120738   23.685780   18.473000 C.3        1 MOL1         0.0138
      81    H38     20.052829   23.455508   18.371261 H          1 MOL1         0.0794
      82    H39     21.646314   23.149300   17.671785 H          1 MOL1         0.0794
      83    O20     21.337096   25.094855   18.350130 O.3        1 MOL1        -0.5486
      84    H40     22.300073   25.236729   18.488245 H          1 MOL1         0.3769
      85    C25     24.641039   17.783234   22.375250 C.3        1 MOL1         0.2972
      86    H41     25.197636   16.913518   22.745505 H          1 MOL1         0.0751
      87    O21     23.483187   17.385594   21.607976 O.3        1 MOL1        -0.3740
      88    C26     24.173512   18.661849   23.563313 C.3        1 MOL1         0.1003
      89    H42     25.073231   18.995778   24.095983 H          1 MOL1         0.0783
      90    O22     23.363060   17.882943   24.461916 O.3        1 MOL1        -0.5519
      91    H43     22.637121   18.464196   24.810392 H          1 MOL1         0.3769
      92    C27     23.434156   19.927447   23.055303 C.3        1 MOL1         0.1053
      93    H44     22.485612   19.618167   22.602218 H          1 MOL1         0.0783
      94    O23     23.188647   20.816149   24.152483 O.3        1 MOL1        -0.5519
      95    H45     22.454505   20.413595   24.685490 H          1 MOL1         0.3769
      96    C28     24.248455   20.672282   21.964195 C.3        1 MOL1         0.1018
      97    H46     25.055004   21.238061   22.449036 H          1 MOL1         0.0783
      98    C29     24.842978   19.714925   20.894356 C.3        1 MOL1         0.1043
      99    H47     24.021571   19.354197   20.261565 H          1 MOL1         0.0783
     100    O24     25.491218   18.591277   21.535665 O.3        1 MOL1        -0.3740
     101    C30     25.878826   20.392931   19.970111 C.3        1 MOL1         0.0138
     102    H48     25.378762   21.177991   19.387519 H          1 MOL1         0.0794
     103    H49     26.255936   19.647498   19.257080 H          1 MOL1         0.0794
     104    O25     26.959470   20.950599   20.723666 O.3        1 MOL1        -0.5486
     105    H50     27.340471   20.210160   21.246383 H          1 MOL1         0.3769
     106    C31     21.378872   13.870292   20.765068 C.3        1 MOL1         0.2972
     107    H51     21.089434   12.859928   20.450201 H          1 MOL1         0.0751
     108    O26     20.232142   14.691699   21.059491 O.3        1 MOL1        -0.3740
     109    C32     22.275240   13.810632   22.028348 C.3        1 MOL1         0.1003
     110    H52     23.177938   13.244720   21.763701 H          1 MOL1         0.0783
     111    O27     21.612355   13.152751   23.116089 O.3        1 MOL1        -0.5519
     112    H53     22.191910   13.322705   23.893179 H          1 MOL1         0.3769
     113    C33     22.714232   15.229998   22.460772 C.3        1 MOL1         0.1053
     114    H54     21.816994   15.788469   22.762138 H          1 MOL1         0.0783
     115    O28     23.609425   15.120420   23.574187 O.3        1 MOL1        -0.5519
     116    H55     23.593109   16.005193   24.017664 H          1 MOL1         0.3769
     117    C34     23.379187   15.985441   21.275212 C.3        1 MOL1         0.1018
     118    H56     24.367459   15.554589   21.066954 H          1 MOL1         0.0783
     119    C35     22.511648   15.899226   19.988896 C.3        1 MOL1         0.1043
     120    H57     21.608108   16.501733   20.140369 H          1 MOL1         0.0783
     121    O29     22.140584   14.521855   19.726051 O.3        1 MOL1        -0.3740
     122    C36     23.231459   16.438498   18.733325 C.3        1 MOL1         0.0138
     123    H58     23.499767   17.490248   18.897099 H          1 MOL1         0.0794
     124    H59     22.533137   16.405994   17.886472 H          1 MOL1         0.0794
     125    O30     24.401665   15.669184   18.441175 O.3        1 MOL1        -0.5486
     126    H60     24.105623   14.732903   18.394232 H          1 MOL1         0.3769
     127    C1      20.033334   19.864195   24.894275 C.2        1 MOL1         0.6173
     128    O1      19.435895   20.689560   25.555520 O.co2      1 MOL1        -0.6755
     129    O2      21.082612   19.356491   25.252755 O.co2      1 MOL1        -0.6755
     130    C2      19.495142   19.544175   23.545017 C.2        1 MOL1        -0.1504
     131    H1      18.613911   20.100758   23.240890 H          1 MOL1         0.0814
     132    C3      20.050128   18.636215   22.712254 C.2        1 MOL1        -0.1394
     133    H2      20.923582   18.061550   23.015419 H          1 MOL1         0.0817
     134    C4      19.552828   18.359194   21.314197 C.3        1 MOL1        -0.1849
     135    H3      18.496915   18.639048   21.215257 H          1 MOL1         0.0736
     136    H4      19.615963   17.283737   21.124443 H          1 MOL1         0.0736
     137    C5      20.388775   19.125191   20.270958 C.3        1 MOL1        -0.1866
     138    H5      20.309336   20.201574   20.466491 H          1 MOL1         0.0738
     139    H6      21.449972   18.866647   20.381577 H          1 MOL1         0.0738
     140    C6      19.926529   18.817196   18.832985 C.3        1 MOL1        -0.2879
     141    H7      20.043384   17.750391   18.603819 H          1 MOL1         0.0750
     142    H8      18.870663   19.081220   18.696077 H          1 MOL1         0.0750
     143    H9      20.518378   19.388329   18.106413 H          1 MOL1         0.0750
@<TRIPOS>BOND
    1     1     2    1
    2     1     3    1
    3     1     4    1
    4     4     5    1
    5     4     6    1
    6     6     7    1
    7     4     8    1
    8     8     9    1
    9     8    10    1
   10    10    11    1
   11     8    12    1
   12    12    13    1
   13    12    14    1
   14    14    15    1
   15     1    16    1
   16    14    16    1
   17    14    17    1
   18    17    18    1
   19    17    19    1
   20    17    20    1
   21    20    21    1
   22    22    23    1
   23    22    24    1
   24    22    25    1
   25    25    26    1
   26    25    27    1
   27    27    28    1
   28    25    29    1
   29    29    30    1
   30    29    31    1
   31    31    32    1
   32     3    33    1
   33    29    33    1
   34    33    34    1
   35    33    35    1
   36    35    36    1
   37    22    37    1
   38    35    37    1
   39    35    38    1
   40    38    39    1
   41    38    40    1
   42    38    41    1
   43    41    42    1
   44    43    44    1
   45    43    45    1
   46    43    46    1
   47    46    47    1
   48    46    48    1
   49    48    49    1
   50    46    50    1
   51    50    51    1
   52    50    52    1
   53    52    53    1
   54    24    54    1
   55    50    54    1
   56    54    55    1
   57    54    56    1
   58    56    57    1
   59    43    58    1
   60    56    58    1
   61    56    59    1
   62    59    60    1
   63    59    61    1
   64    59    62    1
   65    62    63    1
   66    64    65    1
   67    64    66    1
   68    64    67    1
   69    67    68    1
   70    67    69    1
   71    69    70    1
   72    67    71    1
   73    71    72    1
   74    71    73    1
   75    73    74    1
   76    45    75    1
   77    71    75    1
   78    75    76    1
   79    75    77    1
   80    77    78    1
   81    64    79    1
   82    77    79    1
   83    77    80    1
   84    80    81    1
   85    80    82    1
   86    80    83    1
   87    83    84    1
   88    85    86    1
   89    85    87    1
   90    85    88    1
   91    88    89    1
   92    88    90    1
   93    90    91    1
   94    88    92    1
   95    92    93    1
   96    92    94    1
   97    94    95    1
   98    66    96    1
   99    92    96    1
  100    96    97    1
  101    96    98    1
  102    98    99    1
  103    85   100    1
  104    98   100    1
  105    98   101    1
  106   101   102    1
  107   101   103    1
  108   101   104    1
  109   104   105    1
  110   106   107    1
  111    12   108    1
  112   106   108    1
  113   106   109    1
  114   109   110    1
  115   109   111    1
  116   111   112    1
  117   109   113    1
  118   113   114    1
  119   113   115    1
  120   115   116    1
  121    87   117    1
  122   113   117    1
  123   117   118    1
  124   117   119    1
  125   119   120    1
  126   106   121    1
  127   119   121    1
  128   119   122    1
  129   122   123    1
  130   122   124    1
  131   122   125    1
  132   125   126    1
  133   127   128    1
  134   127   129    2
  135   127   130    1
  136   130   131    1
  137   130   132    2
  138   132   133    1
  139   132   134    1
  140   134   135    1
  141   134   136    1
  142   134   137    1
  143   137   138    1
  144   137   139    1
  145   137   140    1
  146   140   141    1
  147   140   142    1
  148   140   143    1
@<TRIPOS>SUBSTRUCTURE
       1 MOL1            1 RESIDUE      1      MOL     
       2 MOL1          143 RESIDUE      1      MOL     
@<SCITEGIC>MOL_PROPERTY
VM2 Rank
SciTegic.value.IntegerValue
4

@<SCITEGIC>MOL_PROPERTY
Conf_Id
SciTegic.value.IntegerValue
22546

@<SCITEGIC>MOL_PROPERTY
Probability
SciTegic.value.DoubleValue
1.28

@<SCITEGIC>MOL_PROPERTY
Sum Probability
SciTegic.value.DoubleValue
6.08

@<SCITEGIC>MOL_PROPERTY
Delta G
SciTegic.value.DoubleValue
0.267

@<SCITEGIC>MOL_PROPERTY
G
SciTegic.value.DoubleValue
488.101

@<SCITEGIC>MOL_PROPERTY
E
SciTegic.value.DoubleValue
305.311

@<SCITEGIC>MOL_PROPERTY
-TS
SciTegic.value.DoubleValue
182.789

@<SCITEGIC>MOL_PROPERTY
U+W
SciTegic.value.DoubleValue
179.223

@<SCITEGIC>MOL_PROPERTY
U
SciTegic.value.DoubleValue
252.452

@<SCITEGIC>MOL_PROPERTY
W
SciTegic.value.DoubleValue
-73.229

@<SCITEGIC>MOL_PROPERTY
W(PB)
SciTegic.value.DoubleValue
-79.295

@<SCITEGIC>MOL_PROPERTY
W(SA)
SciTegic.value.DoubleValue
6.066

@<SCITEGIC>MOL_PROPERTY
Valence
SciTegic.value.DoubleValue
145.541

@<SCITEGIC>MOL_PROPERTY
Coulomb
SciTegic.value.DoubleValue
129.959

@<SCITEGIC>MOL_PROPERTY
VdW
SciTegic.value.DoubleValue
-23.048

@<SCITEGIC>MOL_PROPERTY
VdW6
SciTegic.value.DoubleValue
-174.862

@<SCITEGIC>MOL_PROPERTY
VdW12
SciTegic.value.DoubleValue
151.814

@<SCITEGIC>MOL_PROPERTY
Bond
SciTegic.value.DoubleValue
4.567

@<SCITEGIC>MOL_PROPERTY
Angle
SciTegic.value.DoubleValue
11.810

@<SCITEGIC>MOL_PROPERTY
Pdih
SciTegic.value.DoubleValue
129.149

@<SCITEGIC>MOL_PROPERTY
Idih
SciTegic.value.DoubleValue
0.015

@<SCITEGIC>MOL_PROPERTY
Tether
SciTegic.value.DoubleValue
0.000

@<TRIPOS>MOLECULE
CD_guest-s19_vm2_rndm.mol2 : vm2 host+ligand conformer 5
         143         148           2
SMALL
USER_CHARGES
 
@<TRIPOS>ATOM
       1    C1      16.311875   15.257812   20.665545 C.3        1 MOL1         0.2972
       2    H1      15.270171   15.090881   20.362524 H          1 MOL1         0.0751
       3    O1      16.517848   16.600037   21.144255 O.3        1 MOL1        -0.3740
       4    C2      16.727840   14.268715   21.783104 C.3        1 MOL1         0.1003
       5    H2      16.613709   13.253547   21.381182 H          1 MOL1         0.0783
       6    O2      15.900754   14.411726   22.946217 O.3        1 MOL1        -0.5519
       7    H3      16.322334   13.833235   23.621139 H          1 MOL1         0.3769
       8    C3      18.212793   14.462800   22.173455 C.3        1 MOL1         0.1053
       9    H4      18.312689   15.449592   22.646595 H          1 MOL1         0.0783
      10    O3      18.575609   13.439047   23.107450 O.3        1 MOL1        -0.5519
      11    H5      19.355954   13.794032   23.601754 H          1 MOL1         0.3769
      12    C4      19.137648   14.431330   20.922286 C.3        1 MOL1         0.1018
      13    H6      19.227662   13.401709   20.551749 H          1 MOL1         0.0783
      14    C5      18.593658   15.334006   19.781385 C.3        1 MOL1         0.1043
      15    H7      18.713225   16.383642   20.081624 H          1 MOL1         0.0783
      16    O4      17.193337   15.045999   19.543161 O.3        1 MOL1        -0.3740
      17    C6      19.344990   15.139548   18.445656 C.3        1 MOL1         0.0138
      18    H8      20.407805   15.371398   18.594128 H          1 MOL1         0.0794
      19    H9      18.951562   15.856991   17.713266 H          1 MOL1         0.0794
      20    O5      19.193823   13.802115   17.960307 O.3        1 MOL1        -0.5486
      21    H10     18.226041   13.630577   17.936863 H          1 MOL1         0.3769
      22    C7      14.678300   20.233658   21.641819 C.3        1 MOL1         0.2972
      23    H11     14.008657   21.092044   21.779584 H          1 MOL1         0.0751
      24    O6      16.030107   20.647457   21.360763 O.3        1 MOL1        -0.3740
      25    C8      14.678159   19.348983   22.911879 C.3        1 MOL1         0.1003
      26    H12     13.656708   18.969686   23.045837 H          1 MOL1         0.0783
      27    O7      15.055285   20.100903   24.073378 O.3        1 MOL1        -0.5519
      28    H13     15.217017   19.420673   24.765377 H          1 MOL1         0.3769
      29    C9      15.615442   18.132325   22.736150 C.3        1 MOL1         0.1053
      30    H14     16.650208   18.498935   22.713381 H          1 MOL1         0.0783
      31    O8      15.441404   17.236918   23.840655 O.3        1 MOL1        -0.5519
      32    H15     15.806672   16.364383   23.555072 H          1 MOL1         0.3769
      33    C10     15.334752   17.374329   21.412818 C.3        1 MOL1         0.1018
      34    H16     14.452867   16.736372   21.559992 H          1 MOL1         0.0783
      35    C11     15.115674   18.314708   20.192125 C.3        1 MOL1         0.1043
      36    H17     16.092791   18.714797   19.890513 H          1 MOL1         0.0783
      37    O9      14.231142   19.407263   20.547127 O.3        1 MOL1        -0.3740
      38    C12     14.508495   17.602073   18.963082 C.3        1 MOL1         0.0138
      39    H18     15.219330   16.850435   18.595435 H          1 MOL1         0.0794
      40    H19     14.371056   18.339387   18.160767 H          1 MOL1         0.0794
      41    O10     13.259776   16.984282   19.287828 O.3        1 MOL1        -0.5486
      42    H20     12.680096   17.700306   19.631202 H          1 MOL1         0.3769
      43    C13     18.456476   23.951173   20.823106 C.3        1 MOL1         0.2972
      44    H21     18.892710   24.927422   20.575274 H          1 MOL1         0.0751
      45    O11     19.477526   22.986302   21.153468 O.3        1 MOL1        -0.3740
      46    C14     17.448279   24.072610   21.997554 C.3        1 MOL1         0.1003
      47    H22     16.641152   24.738239   21.664704 H          1 MOL1         0.0783
      48    O12     18.052867   24.626950   23.171930 O.3        1 MOL1        -0.5519
      49    H23     17.354852   24.568499   23.863158 H          1 MOL1         0.3769
      50    C15     16.821111   22.697493   22.326270 C.3        1 MOL1         0.1053
      51    H24     17.615747   22.041336   22.708444 H          1 MOL1         0.0783
      52    O13     15.805026   22.857829   23.323658 O.3        1 MOL1        -0.5519
      53    H25     15.557329   21.945727   23.617765 H          1 MOL1         0.3769
      54    C16     16.221925   22.040291   21.056679 C.3        1 MOL1         0.1018
      55    H26     15.279358   22.537611   20.791873 H          1 MOL1         0.0783
      56    C17     17.184155   22.102678   19.840461 C.3        1 MOL1         0.1043
      57    H27     17.998930   21.390454   20.013208 H          1 MOL1         0.0783
      58    O14     17.722841   23.440653   19.690617 O.3        1 MOL1        -0.3740
      59    C18     16.498557   21.721990   18.509880 C.3        1 MOL1         0.0138
      60    H28     16.093011   20.705383   18.591928 H          1 MOL1         0.0794
      61    H29     17.255438   21.711804   17.714255 H          1 MOL1         0.0794
      62    O15     15.453308   22.644529   18.188789 O.3        1 MOL1        -0.5486
      63    H30     15.863347   23.537816   18.213699 H          1 MOL1         0.3769
      64    C19     23.524857   22.665548   22.034836 C.3        1 MOL1         0.2972
      65    H31     24.568432   22.842424   22.324468 H          1 MOL1         0.0751
      66    O16     23.346386   21.353636   21.463810 O.3        1 MOL1        -0.3740
      67    C20     22.592052   22.826711   23.262464 C.3        1 MOL1         0.1003
      68    H32     22.699982   23.859655   23.618136 H          1 MOL1         0.0783
      69    O17     22.944071   21.932330   24.325858 O.3        1 MOL1        -0.5519
      70    H33     22.149891   21.910844   24.908583 H          1 MOL1         0.3769
      71    C21     21.113369   22.620686   22.866946 C.3        1 MOL1         0.1053
      72    H34     20.975222   21.570922   22.574605 H          1 MOL1         0.0783
      73    O18     20.288575   22.939472   23.993227 O.3        1 MOL1        -0.5519
      74    H35     19.449491   23.314005   23.633774 H          1 MOL1         0.3769
      75    C22     20.721013   23.509723   21.661766 C.3        1 MOL1         0.1018
      76    H36     20.615371   24.546288   22.009630 H          1 MOL1         0.0783
      77    C23     21.767480   23.439195   20.513042 C.3        1 MOL1         0.1043
      78    H37     21.695712   22.449730   20.041730 H          1 MOL1         0.0783
      79    O19     23.104260   23.630745   21.045491 O.3        1 MOL1        -0.3740
      80    C24     21.543443   24.497732   19.410409 C.3        1 MOL1         0.0138
      81    H38     20.585005   24.298695   18.912746 H          1 MOL1         0.0794
      82    H39     22.331845   24.390979   18.653365 H          1 MOL1         0.0794
      83    O20     21.552303   25.821134   19.953770 O.3        1 MOL1        -0.5486
      84    H40     22.418284   25.926587   20.407061 H          1 MOL1         0.3769
      85    C25     25.201990   17.716376   20.995456 C.3        1 MOL1         0.2972
      86    H41     25.847403   16.855145   20.779765 H          1 MOL1         0.0751
      87    O21     23.830335   17.314366   21.197465 O.3        1 MOL1        -0.3740
      88    C26     25.701989   18.493304   22.239954 C.3        1 MOL1         0.1003
      89    H42     26.695657   18.890104   21.995753 H          1 MOL1         0.0783
      90    O22     25.821730   17.622305   23.375383 O.3        1 MOL1        -0.5519
      91    H43     24.902781   17.364838   23.637180 H          1 MOL1         0.3769
      92    C27     24.769357   19.699719   22.532030 C.3        1 MOL1         0.1053
      93    H44     23.797561   19.306466   22.863129 H          1 MOL1         0.0783
      94    O23     25.338099   20.518231   23.560354 O.3        1 MOL1        -0.5519
      95    H45     24.583071   21.022556   23.951945 H          1 MOL1         0.3769
      96    C28     24.535709   20.565351   21.259229 C.3        1 MOL1         0.1018
      97    H46     25.413484   21.202320   21.086558 H          1 MOL1         0.0783
      98    C29     24.280108   19.732162   19.973444 C.3        1 MOL1         0.1043
      99    H47     23.257194   19.338215   19.997447 H          1 MOL1         0.0783
     100    O24     25.232058   18.643447   19.891176 O.3        1 MOL1        -0.3740
     101    C30     24.430687   20.587383   18.698350 C.3        1 MOL1         0.0138
     102    H48     25.466151   20.945129   18.621993 H          1 MOL1         0.0794
     103    H49     23.776955   21.466763   18.774274 H          1 MOL1         0.0794
     104    O25     24.080374   19.816743   17.547317 O.3        1 MOL1        -0.5486
     105    H50     24.579502   18.973200   17.624096 H          1 MOL1         0.3769
     106    C31     21.375053   14.079286   21.895657 C.3        1 MOL1         0.2972
     107    H51     20.923295   13.106988   22.128203 H          1 MOL1         0.0751
     108    O26     20.428251   14.973391   21.270208 O.3        1 MOL1        -0.3740
     109    C32     21.908622   14.750901   23.185816 C.3        1 MOL1         0.1003
     110    H52     22.699366   14.105458   23.589415 H          1 MOL1         0.0783
     111    O27     20.853148   14.851179   24.156582 O.3        1 MOL1        -0.5519
     112    H53     20.938423   15.722204   24.625892 H          1 MOL1         0.3769
     113    C33     22.549229   16.124992   22.851770 C.3        1 MOL1         0.1053
     114    H54     21.765217   16.799675   22.490772 H          1 MOL1         0.0783
     115    O28     23.164523   16.678992   24.022110 O.3        1 MOL1        -0.5519
     116    H55     22.426010   16.981718   24.612480 H          1 MOL1         0.3769
     117    C34     23.603640   15.990876   21.719418 C.3        1 MOL1         0.1018
     118    H56     24.518361   15.553280   22.140745 H          1 MOL1         0.0783
     119    C35     23.103724   15.129292   20.524735 C.3        1 MOL1         0.1043
     120    H57     22.359217   15.714299   19.968644 H          1 MOL1         0.0783
     121    O29     22.496367   13.905854   21.004933 O.3        1 MOL1        -0.3740
     122    C36     24.223169   14.741217   19.533080 C.3        1 MOL1         0.0138
     123    H58     24.615479   15.651979   19.061667 H          1 MOL1         0.0794
     124    H59     23.788952   14.122996   18.735893 H          1 MOL1         0.0794
     125    O30     25.277246   14.033185   20.192057 O.3        1 MOL1        -0.5486
     126    H60     24.859928   13.249739   20.614700 H          1 MOL1         0.3769
     127    C1      20.481988   18.560916   25.308932 C.2        1 MOL1         0.6173
     128    O1      20.768286   17.376436   25.330402 O.co2      1 MOL1        -0.6755
     129    O2      20.684686   19.308385   26.245550 O.co2      1 MOL1        -0.6755
     130    C2      19.966911   19.161547   24.049259 C.2        1 MOL1        -0.1504
     131    H1      19.874187   20.242959   24.051120 H          1 MOL1         0.0814
     132    C3      19.659608   18.449400   22.941571 C.2        1 MOL1        -0.1394
     133    H2      19.728220   17.363554   22.941023 H          1 MOL1         0.0817
     134    C4      19.278091   19.074382   21.618339 C.3        1 MOL1        -0.1849
     135    H3      18.993466   20.124814   21.760294 H          1 MOL1         0.0736
     136    H4      18.407435   18.562089   21.192566 H          1 MOL1         0.0736
     137    C5      20.467122   18.978885   20.642373 C.3        1 MOL1        -0.1866
     138    H5      21.339856   19.460750   21.101174 H          1 MOL1         0.0738
     139    H6      20.732418   17.923843   20.489699 H          1 MOL1         0.0738
     140    C6      20.174005   19.636520   19.280069 C.3        1 MOL1        -0.2879
     141    H7      19.273105   19.209382   18.821474 H          1 MOL1         0.0750
     142    H8      20.030805   20.717768   19.392173 H          1 MOL1         0.0750
     143    H9      21.014441   19.481880   18.590868 H          1 MOL1         0.0750
@<TRIPOS>BOND
    1     1     2    1
    2     1     3    1
    3     1     4    1
    4     4     5    1
    5     4     6    1
    6     6     7    1
    7     4     8    1
    8     8     9    1
    9     8    10    1
   10    10    11    1
   11     8    12    1
   12    12    13    1
   13    12    14    1
   14    14    15    1
   15     1    16    1
   16    14    16    1
   17    14    17    1
   18    17    18    1
   19    17    19    1
   20    17    20    1
   21    20    21    1
   22    22    23    1
   23    22    24    1
   24    22    25    1
   25    25    26    1
   26    25    27    1
   27    27    28    1
   28    25    29    1
   29    29    30    1
   30    29    31    1
   31    31    32    1
   32     3    33    1
   33    29    33    1
   34    33    34    1
   35    33    35    1
   36    35    36    1
   37    22    37    1
   38    35    37    1
   39    35    38    1
   40    38    39    1
   41    38    40    1
   42    38    41    1
   43    41    42    1
   44    43    44    1
   45    43    45    1
   46    43    46    1
   47    46    47    1
   48    46    48    1
   49    48    49    1
   50    46    50    1
   51    50    51    1
   52    50    52    1
   53    52    53    1
   54    24    54    1
   55    50    54    1
   56    54    55    1
   57    54    56    1
   58    56    57    1
   59    43    58    1
   60    56    58    1
   61    56    59    1
   62    59    60    1
   63    59    61    1
   64    59    62    1
   65    62    63    1
   66    64    65    1
   67    64    66    1
   68    64    67    1
   69    67    68    1
   70    67    69    1
   71    69    70    1
   72    67    71    1
   73    71    72    1
   74    71    73    1
   75    73    74    1
   76    45    75    1
   77    71    75    1
   78    75    76    1
   79    75    77    1
   80    77    78    1
   81    64    79    1
   82    77    79    1
   83    77    80    1
   84    80    81    1
   85    80    82    1
   86    80    83    1
   87    83    84    1
   88    85    86    1
   89    85    87    1
   90    85    88    1
   91    88    89    1
   92    88    90    1
   93    90    91    1
   94    88    92    1
   95    92    93    1
   96    92    94    1
   97    94    95    1
   98    66    96    1
   99    92    96    1
  100    96    97    1
  101    96    98    1
  102    98    99    1
  103    85   100    1
  104    98   100    1
  105    98   101    1
  106   101   102    1
  107   101   103    1
  108   101   104    1
  109   104   105    1
  110   106   107    1
  111    12   108    1
  112   106   108    1
  113   106   109    1
  114   109   110    1
  115   109   111    1
  116   111   112    1
  117   109   113    1
  118   113   114    1
  119   113   115    1
  120   115   116    1
  121    87   117    1
  122   113   117    1
  123   117   118    1
  124   117   119    1
  125   119   120    1
  126   106   121    1
  127   119   121    1
  128   119   122    1
  129   122   123    1
  130   122   124    1
  131   122   125    1
  132   125   126    1
  133   127   128    1
  134   127   129    2
  135   127   130    1
  136   130   131    1
  137   130   132    2
  138   132   133    1
  139   132   134    1
  140   134   135    1
  141   134   136    1
  142   134   137    1
  143   137   138    1
  144   137   139    1
  145   137   140    1
  146   140   141    1
  147   140   142    1
  148   140   143    1
@<TRIPOS>SUBSTRUCTURE
       1 MOL1            1 RESIDUE      1      MOL     
       2 MOL1          143 RESIDUE      1      MOL     
@<SCITEGIC>MOL_PROPERTY
VM2 Rank
SciTegic.value.IntegerValue
5

@<SCITEGIC>MOL_PROPERTY
Conf_Id
SciTegic.value.IntegerValue
21931

@<SCITEGIC>MOL_PROPERTY
Probability
SciTegic.value.DoubleValue
1.25

@<SCITEGIC>MOL_PROPERTY
Sum Probability
SciTegic.value.DoubleValue
7.33

@<SCITEGIC>MOL_PROPERTY
Delta G
SciTegic.value.DoubleValue
0.281

@<SCITEGIC>MOL_PROPERTY
G
SciTegic.value.DoubleValue
488.115

@<SCITEGIC>MOL_PROPERTY
E
SciTegic.value.DoubleValue
305.679

@<SCITEGIC>MOL_PROPERTY
-TS
SciTegic.value.DoubleValue
182.436

@<SCITEGIC>MOL_PROPERTY
U+W
SciTegic.value.DoubleValue
179.591

@<SCITEGIC>MOL_PROPERTY
U
SciTegic.value.DoubleValue
252.508

@<SCITEGIC>MOL_PROPERTY
W
SciTegic.value.DoubleValue
-72.917

@<SCITEGIC>MOL_PROPERTY
W(PB)
SciTegic.value.DoubleValue
-79.071

@<SCITEGIC>MOL_PROPERTY
W(SA)
SciTegic.value.DoubleValue
6.155

@<SCITEGIC>MOL_PROPERTY
Valence
SciTegic.value.DoubleValue
145.720

@<SCITEGIC>MOL_PROPERTY
Coulomb
SciTegic.value.DoubleValue
129.074

@<SCITEGIC>MOL_PROPERTY
VdW
SciTegic.value.DoubleValue
-22.286

@<SCITEGIC>MOL_PROPERTY
VdW6
SciTegic.value.DoubleValue
-174.999

@<SCITEGIC>MOL_PROPERTY
VdW12
SciTegic.value.DoubleValue
152.713

@<SCITEGIC>MOL_PROPERTY
Bond
SciTegic.value.DoubleValue
4.604

@<SCITEGIC>MOL_PROPERTY
Angle
SciTegic.value.DoubleValue
12.224

@<SCITEGIC>MOL_PROPERTY
Pdih
SciTegic.value.DoubleValue
128.862

@<SCITEGIC>MOL_PROPERTY
Idih
SciTegic.value.DoubleValue
0.030

@<SCITEGIC>MOL_PROPERTY
Tether
SciTegic.value.DoubleValue
0.000

@<TRIPOS>MOLECULE
CD_guest-s19_vm2_rndm.mol2 : vm2 host+ligand conformer 6
         143         148           2
SMALL
USER_CHARGES
 
@<TRIPOS>ATOM
       1    C1      16.318986   15.190310   20.946039 C.3        1 MOL1         0.2972
       2    H1      15.280520   14.944237   20.691170 H          1 MOL1         0.0751
       3    O1      16.472330   16.583126   21.279265 O.3        1 MOL1        -0.3740
       4    C2      16.791277   14.346523   22.157633 C.3        1 MOL1         0.1003
       5    H2      16.696002   13.289593   21.876750 H          1 MOL1         0.0783
       6    O2      15.984695   14.599646   23.316484 O.3        1 MOL1        -0.5519
       7    H3      16.461003   14.148902   24.049994 H          1 MOL1         0.3769
       8    C3      18.279493   14.617645   22.485874 C.3        1 MOL1         0.1053
       9    H4      18.370916   15.656649   22.833393 H          1 MOL1         0.0783
      10    O3      18.692337   13.720093   23.523424 O.3        1 MOL1        -0.5519
      11    H5      19.504163   14.122567   23.921804 H          1 MOL1         0.3769
      12    C4      19.165084   14.451229   21.219296 C.3        1 MOL1         0.1018
      13    H6      19.235702   13.389609   20.947972 H          1 MOL1         0.0783
      14    C5      18.582852   15.242279   20.017446 C.3        1 MOL1         0.1043
      15    H7      18.677378   16.315088   20.229904 H          1 MOL1         0.0783
      16    O4      17.188489   14.895198   19.833028 O.3        1 MOL1        -0.3740
      17    C6      19.312761   14.956957   18.686345 C.3        1 MOL1         0.0138
      18    H8      20.369220   15.235962   18.788087 H          1 MOL1         0.0794
      19    H9      18.879364   15.594643   17.904422 H          1 MOL1         0.0794
      20    O5      19.198160   13.578330   18.321821 O.3        1 MOL1        -0.5486
      21    H10     18.236777   13.373456   18.337441 H          1 MOL1         0.3769
      22    C7      14.576598   20.256440   21.167970 C.3        1 MOL1         0.2972
      23    H11     13.869196   21.090865   21.084259 H          1 MOL1         0.0751
      24    O6      15.935035   20.713575   21.316091 O.3        1 MOL1        -0.3740
      25    C8      14.223139   19.377122   22.393037 C.3        1 MOL1         0.1003
      26    H12     13.212459   18.979962   22.232015 H          1 MOL1         0.0783
      27    O7      14.242642   20.138897   23.608122 O.3        1 MOL1        -0.5519
      28    H13     14.177749   19.465127   24.322149 H          1 MOL1         0.3769
      29    C9      15.193336   18.179082   22.507338 C.3        1 MOL1         0.1053
      30    H14     16.190556   18.567803   22.753532 H          1 MOL1         0.0783
      31    O8      14.741122   17.297015   23.541872 O.3        1 MOL1        -0.5519
      32    H15     15.287260   16.474602   23.473559 H          1 MOL1         0.3769
      33    C10     15.293741   17.402740   21.171769 C.3        1 MOL1         0.1018
      34    H16     14.381873   16.803460   21.049595 H          1 MOL1         0.0783
      35    C11     15.475134   18.336684   19.942341 C.3        1 MOL1         0.1043
      36    H17     16.492298   18.748743   19.963676 H          1 MOL1         0.0783
      37    O9      14.509988   19.417003   19.995684 O.3        1 MOL1        -0.3740
      38    C12     15.288454   17.612680   18.590811 C.3        1 MOL1         0.0138
      39    H18     16.058132   16.837084   18.487681 H          1 MOL1         0.0794
      40    H19     15.443599   18.336105   17.779325 H          1 MOL1         0.0794
      41    O10     13.984538   17.031781   18.494403 O.3        1 MOL1        -0.5486
      42    H20     13.347281   17.765529   18.642838 H          1 MOL1         0.3769
      43    C13     18.439479   23.991063   21.139433 C.3        1 MOL1         0.2972
      44    H21     18.898568   24.979309   21.007569 H          1 MOL1         0.0751
      45    O11     19.436617   22.968544   21.348142 O.3        1 MOL1        -0.3740
      46    C14     17.446715   23.995755   22.331803 C.3        1 MOL1         0.1003
      47    H22     16.661109   24.725956   22.097469 H          1 MOL1         0.0783
      48    O12     18.082992   24.372402   23.558955 O.3        1 MOL1        -0.5519
      49    H23     17.391796   24.245005   24.247609 H          1 MOL1         0.3769
      50    C15     16.774612   22.612606   22.493081 C.3        1 MOL1         0.1053
      51    H24     17.543288   21.889675   22.800645 H          1 MOL1         0.0783
      52    O13     15.751761   22.691987   23.493344 O.3        1 MOL1        -0.5519
      53    H25     15.328078   21.798516   23.538019 H          1 MOL1         0.3769
      54    C16     16.160120   22.125699   21.157806 C.3        1 MOL1         0.1018
      55    H26     15.230062   22.678526   20.971096 H          1 MOL1         0.0783
      56    C17     17.118672   22.307588   19.950053 C.3        1 MOL1         0.1043
      57    H27     17.921402   21.565775   20.031774 H          1 MOL1         0.0783
      58    O14     17.686257   23.640754   19.959521 O.3        1 MOL1        -0.3740
      59    C18     16.422007   22.102996   18.586880 C.3        1 MOL1         0.0138
      60    H28     16.022177   21.081898   18.536714 H          1 MOL1         0.0794
      61    H29     17.171235   22.201284   17.790061 H          1 MOL1         0.0794
      62    O15     15.370620   23.055149   18.399561 O.3        1 MOL1        -0.5486
      63    H30     15.780633   23.940578   18.519824 H          1 MOL1         0.3769
      64    C19     23.526203   22.552342   22.014576 C.3        1 MOL1         0.2972
      65    H31     24.579507   22.715652   22.275208 H          1 MOL1         0.0751
      66    O16     23.336325   21.294905   21.333813 O.3        1 MOL1        -0.3740
      67    C20     22.643590   22.593068   23.289411 C.3        1 MOL1         0.1003
      68    H32     22.760417   23.591592   23.730410 H          1 MOL1         0.0783
      69    O17     23.045881   21.614409   24.255575 O.3        1 MOL1        -0.5519
      70    H33     22.274829   21.536627   24.862758 H          1 MOL1         0.3769
      71    C21     21.149433   22.411148   22.939366 C.3        1 MOL1         0.1053
      72    H34     20.999367   21.393406   22.554293 H          1 MOL1         0.0783
      73    O18     20.370130   22.613339   24.123739 O.3        1 MOL1        -0.5519
      74    H35     19.503725   22.984455   23.831632 H          1 MOL1         0.3769
      75    C22     20.712420   23.417315   21.845989 C.3        1 MOL1         0.1018
      76    H36     20.642368   24.415081   22.300242 H          1 MOL1         0.0783
      77    C23     21.703063   23.450455   20.647198 C.3        1 MOL1         0.1043
      78    H37     21.607354   22.506134   20.094120 H          1 MOL1         0.0783
      79    O19     23.061741   23.598387   21.133873 O.3        1 MOL1        -0.3740
      80    C24     21.434441   24.603556   19.654341 C.3        1 MOL1         0.0138
      81    H38     20.456706   24.447455   19.179520 H          1 MOL1         0.0794
      82    H39     22.191252   24.568024   18.859318 H          1 MOL1         0.0794
      83    O20     21.466395   25.872789   20.313900 O.3        1 MOL1        -0.5486
      84    H40     22.352108   25.941820   20.734914 H          1 MOL1         0.3769
      85    C25     25.202410   17.692755   20.684574 C.3        1 MOL1         0.2972
      86    H41     25.834117   16.837665   20.411784 H          1 MOL1         0.0751
      87    O21     23.848772   17.279731   20.973805 O.3        1 MOL1        -0.3740
      88    C26     25.795251   18.466793   21.890496 C.3        1 MOL1         0.1003
      89    H42     26.755613   18.885291   21.563231 H          1 MOL1         0.0783
      90    O22     26.034883   17.593006   23.004096 O.3        1 MOL1        -0.5519
      91    H43     25.149016   17.380043   23.389889 H          1 MOL1         0.3769
      92    C27     24.869566   19.652377   22.273019 C.3        1 MOL1         0.1053
      93    H44     23.931372   19.238867   22.668207 H          1 MOL1         0.0783
      94    O23     25.500751   20.459997   23.273066 O.3        1 MOL1        -0.5519
      95    H45     24.762413   20.886606   23.773384 H          1 MOL1         0.3769
      96    C28     24.524170   20.532520   21.035494 C.3        1 MOL1         0.1018
      97    H46     25.373235   21.191308   20.809394 H          1 MOL1         0.0783
      98    C29     24.190419   19.711727   19.759022 C.3        1 MOL1         0.1043
      99    H47     23.175677   19.305932   19.852175 H          1 MOL1         0.0783
     100    O24     25.144652   18.633369   19.592954 O.3        1 MOL1        -0.3740
     101    C30     24.241052   20.584693   18.488048 C.3        1 MOL1         0.0138
     102    H48     25.265133   20.953651   18.342509 H          1 MOL1         0.0794
     103    H49     23.586628   21.456576   18.622386 H          1 MOL1         0.0794
     104    O25     23.816147   19.825179   17.354876 O.3        1 MOL1        -0.5486
     105    H50     24.325008   18.984322   17.385996 H          1 MOL1         0.3769
     106    C31     21.440115   14.143483   22.104374 C.3        1 MOL1         0.2972
     107    H51     20.989212   13.203080   22.445108 H          1 MOL1         0.0751
     108    O26     20.467254   15.009919   21.479165 O.3        1 MOL1        -0.3740
     109    C32     22.078645   14.899338   23.295865 C.3        1 MOL1         0.1003
     110    H52     22.894813   14.277379   23.685528 H          1 MOL1         0.0783
     111    O27     21.107334   15.098419   24.334902 O.3        1 MOL1        -0.5519
     112    H53     21.305234   15.966404   24.770522 H          1 MOL1         0.3769
     113    C33     22.693111   16.235035   22.806777 C.3        1 MOL1         0.1053
     114    H54     21.877376   16.875975   22.452179 H          1 MOL1         0.0783
     115    O28     23.389229   16.878769   23.882093 O.3        1 MOL1        -0.5519
     116    H55     22.697447   17.321009   24.443483 H          1 MOL1         0.3769
     117    C34     23.663114   16.003181   21.615783 C.3        1 MOL1         0.1018
     118    H56     24.606280   15.594101   22.000891 H          1 MOL1         0.0783
     119    C35     23.077979   15.051017   20.534108 C.3        1 MOL1         0.1043
     120    H57     22.304009   15.598899   19.981150 H          1 MOL1         0.0783
     121    O29     22.491987   13.879548   21.152763 O.3        1 MOL1        -0.3740
     122    C36     24.126493   14.568461   19.507355 C.3        1 MOL1         0.0138
     123    H58     24.499907   15.433673   18.943787 H          1 MOL1         0.0794
     124    H59     23.634153   13.899008   18.789204 H          1 MOL1         0.0794
     125    O30     25.210998   13.894069   20.151909 O.3        1 MOL1        -0.5486
     126    H60     24.810584   13.155721   20.662928 H          1 MOL1         0.3769
     127    C1      19.926237   17.925927   25.197594 C.2        1 MOL1         0.6173
     128    O1      19.211952   17.614546   26.129874 O.co2      1 MOL1        -0.6755
     129    O2      21.140542   17.820296   25.228188 O.co2      1 MOL1        -0.6755
     130    C2      19.261781   18.335799   23.931084 C.2        1 MOL1        -0.1504
     131    H1      18.177454   18.265764   23.922095 H          1 MOL1         0.0814
     132    C3      19.930431   18.756716   22.834476 C.2        1 MOL1        -0.1394
     133    H2      21.015254   18.854215   22.850643 H          1 MOL1         0.0817
     134    C4      19.257234   19.108806   21.526821 C.3        1 MOL1        -0.1849
     135    H3      18.914281   20.149962   21.554425 H          1 MOL1         0.0736
     136    H4      18.366824   18.483554   21.394171 H          1 MOL1         0.0736
     137    C5      20.215756   18.900797   20.336542 C.3        1 MOL1        -0.1866
     138    H5      21.042209   19.618831   20.413602 H          1 MOL1         0.0738
     139    H6      20.658099   17.896348   20.392292 H          1 MOL1         0.0738
     140    C6      19.511951   19.071302   18.975389 C.3        1 MOL1        -0.2879
     141    H7      20.216574   18.882275   18.155173 H          1 MOL1         0.0750
     142    H8      18.674928   18.369863   18.871857 H          1 MOL1         0.0750
     143    H9      19.127080   20.090423   18.856442 H          1 MOL1         0.0750
@<TRIPOS>BOND
    1     1     2    1
    2     1     3    1
    3     1     4    1
    4     4     5    1
    5     4     6    1
    6     6     7    1
    7     4     8    1
    8     8     9    1
    9     8    10    1
   10    10    11    1
   11     8    12    1
   12    12    13    1
   13    12    14    1
   14    14    15    1
   15     1    16    1
   16    14    16    1
   17    14    17    1
   18    17    18    1
   19    17    19    1
   20    17    20    1
   21    20    21    1
   22    22    23    1
   23    22    24    1
   24    22    25    1
   25    25    26    1
   26    25    27    1
   27    27    28    1
   28    25    29    1
   29    29    30    1
   30    29    31    1
   31    31    32    1
   32     3    33    1
   33    29    33    1
   34    33    34    1
   35    33    35    1
   36    35    36    1
   37    22    37    1
   38    35    37    1
   39    35    38    1
   40    38    39    1
   41    38    40    1
   42    38    41    1
   43    41    42    1
   44    43    44    1
   45    43    45    1
   46    43    46    1
   47    46    47    1
   48    46    48    1
   49    48    49    1
   50    46    50    1
   51    50    51    1
   52    50    52    1
   53    52    53    1
   54    24    54    1
   55    50    54    1
   56    54    55    1
   57    54    56    1
   58    56    57    1
   59    43    58    1
   60    56    58    1
   61    56    59    1
   62    59    60    1
   63    59    61    1
   64    59    62    1
   65    62    63    1
   66    64    65    1
   67    64    66    1
   68    64    67    1
   69    67    68    1
   70    67    69    1
   71    69    70    1
   72    67    71    1
   73    71    72    1
   74    71    73    1
   75    73    74    1
   76    45    75    1
   77    71    75    1
   78    75    76    1
   79    75    77    1
   80    77    78    1
   81    64    79    1
   82    77    79    1
   83    77    80    1
   84    80    81    1
   85    80    82    1
   86    80    83    1
   87    83    84    1
   88    85    86    1
   89    85    87    1
   90    85    88    1
   91    88    89    1
   92    88    90    1
   93    90    91    1
   94    88    92    1
   95    92    93    1
   96    92    94    1
   97    94    95    1
   98    66    96    1
   99    92    96    1
  100    96    97    1
  101    96    98    1
  102    98    99    1
  103    85   100    1
  104    98   100    1
  105    98   101    1
  106   101   102    1
  107   101   103    1
  108   101   104    1
  109   104   105    1
  110   106   107    1
  111    12   108    1
  112   106   108    1
  113   106   109    1
  114   109   110    1
  115   109   111    1
  116   111   112    1
  117   109   113    1
  118   113   114    1
  119   113   115    1
  120   115   116    1
  121    87   117    1
  122   113   117    1
  123   117   118    1
  124   117   119    1
  125   119   120    1
  126   106   121    1
  127   119   121    1
  128   119   122    1
  129   122   123    1
  130   122   124    1
  131   122   125    1
  132   125   126    1
  133   127   128    1
  134   127   129    2
  135   127   130    1
  136   130   131    1
  137   130   132    2
  138   132   133    1
  139   132   134    1
  140   134   135    1
  141   134   136    1
  142   134   137    1
  143   137   138    1
  144   137   139    1
  145   137   140    1
  146   140   141    1
  147   140   142    1
  148   140   143    1
@<TRIPOS>SUBSTRUCTURE
       1 MOL1            1 RESIDUE      1      MOL     
       2 MOL1          143 RESIDUE      1      MOL     
@<SCITEGIC>MOL_PROPERTY
VM2 Rank
SciTegic.value.IntegerValue
6

@<SCITEGIC>MOL_PROPERTY
Conf_Id
SciTegic.value.IntegerValue
24820

@<SCITEGIC>MOL_PROPERTY
Probability
SciTegic.value.DoubleValue
1.23

@<SCITEGIC>MOL_PROPERTY
Sum Probability
SciTegic.value.DoubleValue
8.56

@<SCITEGIC>MOL_PROPERTY
Delta G
SciTegic.value.DoubleValue
0.290

@<SCITEGIC>MOL_PROPERTY
G
SciTegic.value.DoubleValue
488.123

@<SCITEGIC>MOL_PROPERTY
E
SciTegic.value.DoubleValue
306.440

@<SCITEGIC>MOL_PROPERTY
-TS
SciTegic.value.DoubleValue
181.684

@<SCITEGIC>MOL_PROPERTY
U+W
SciTegic.value.DoubleValue
180.351

@<SCITEGIC>MOL_PROPERTY
U
SciTegic.value.DoubleValue
252.450

@<SCITEGIC>MOL_PROPERTY
W
SciTegic.value.DoubleValue
-72.099

@<SCITEGIC>MOL_PROPERTY
W(PB)
SciTegic.value.DoubleValue
-78.188

@<SCITEGIC>MOL_PROPERTY
W(SA)
SciTegic.value.DoubleValue
6.089

@<SCITEGIC>MOL_PROPERTY
Valence
SciTegic.value.DoubleValue
145.782

@<SCITEGIC>MOL_PROPERTY
Coulomb
SciTegic.value.DoubleValue
128.896

@<SCITEGIC>MOL_PROPERTY
VdW
SciTegic.value.DoubleValue
-22.228

@<SCITEGIC>MOL_PROPERTY
VdW6
SciTegic.value.DoubleValue
-173.803

@<SCITEGIC>MOL_PROPERTY
VdW12
SciTegic.value.DoubleValue
151.576

@<SCITEGIC>MOL_PROPERTY
Bond
SciTegic.value.DoubleValue
4.538

@<SCITEGIC>MOL_PROPERTY
Angle
SciTegic.value.DoubleValue
11.892

@<SCITEGIC>MOL_PROPERTY
Pdih
SciTegic.value.DoubleValue
129.330

@<SCITEGIC>MOL_PROPERTY
Idih
SciTegic.value.DoubleValue
0.022

@<SCITEGIC>MOL_PROPERTY
Tether
SciTegic.value.DoubleValue
0.000

@<TRIPOS>MOLECULE
CD_guest-s19_vm2_rndm.mol2 : vm2 host+ligand conformer 7
         143         148           2
SMALL
USER_CHARGES
 
@<TRIPOS>ATOM
       1    C1      16.173909   15.078169   21.674777 C.3        1 MOL1         0.2972
       2    H1      15.091705   14.937725   21.790271 H          1 MOL1         0.0751
       3    O1      16.505608   16.441129   21.342967 O.3        1 MOL1        -0.3740
       4    C2      16.904266   14.687356   22.982328 C.3        1 MOL1         0.1003
       5    H2      16.713292   13.620466   23.156840 H          1 MOL1         0.0783
       6    O2      16.415043   15.440156   24.100592 O.3        1 MOL1        -0.5519
       7    H3      17.066263   15.267600   24.817457 H          1 MOL1         0.3769
       8    C3      18.431615   14.877117   22.838440 C.3        1 MOL1         0.1053
       9    H4      18.637515   15.953772   22.774708 H          1 MOL1         0.0783
      10    O3      19.087470   14.323987   23.985543 O.3        1 MOL1        -0.5519
      11    H5      20.031824   14.185968   23.729815 H          1 MOL1         0.3769
      12    C4      18.979113   14.196652   21.557125 C.3        1 MOL1         0.1018
      13    H6      19.081231   13.120830   21.753491 H          1 MOL1         0.0783
      14    C5      18.088851   14.428008   20.301561 C.3        1 MOL1         0.1043
      15    H7      18.244069   15.459717   19.959117 H          1 MOL1         0.0783
      16    O4      16.690439   14.229353   20.628842 O.3        1 MOL1        -0.3740
      17    C6      18.430062   13.492564   19.120219 C.3        1 MOL1         0.0138
      18    H8      19.446902   13.712408   18.769328 H          1 MOL1         0.0794
      19    H9      17.745334   13.710177   18.289543 H          1 MOL1         0.0794
      20    O5      18.325307   12.117865   19.501861 O.3        1 MOL1        -0.5486
      21    H10     17.405984   11.992262   19.826972 H          1 MOL1         0.3769
      22    C7      14.889877   20.176704   20.618208 C.3        1 MOL1         0.2972
      23    H11     14.273798   21.034947   20.320478 H          1 MOL1         0.0751
      24    O6      16.228400   20.585807   20.970101 O.3        1 MOL1        -0.3740
      25    C8      14.244417   19.411766   21.805104 C.3        1 MOL1         0.1003
      26    H12     13.272438   19.036601   21.458954 H          1 MOL1         0.0783
      27    O7      14.037384   20.257135   22.942862 O.3        1 MOL1        -0.5519
      28    H13     13.716166   19.651251   23.648673 H          1 MOL1         0.3769
      29    C9      15.106496   18.191382   22.204765 C.3        1 MOL1         0.1053
      30    H14     16.062664   18.562260   22.600041 H          1 MOL1         0.0783
      31    O8      14.427890   17.432897   23.213246 O.3        1 MOL1        -0.5519
      32    H15     15.083322   16.774116   23.554118 H          1 MOL1         0.3769
      33    C10     15.407523   17.295085   20.976312 C.3        1 MOL1         0.1018
      34    H16     14.510902   16.720448   20.708458 H          1 MOL1         0.0783
      35    C11     15.871339   18.111056   19.740076 C.3        1 MOL1         0.1043
      36    H17     16.892094   18.463314   19.926874 H          1 MOL1         0.0783
      37    O9      14.991885   19.243373   19.522797 O.3        1 MOL1        -0.3740
      38    C12     15.890707   17.276534   18.440613 C.3        1 MOL1         0.0138
      39    H18     16.561692   16.418219   18.574143 H          1 MOL1         0.0794
      40    H19     16.302680   17.894388   17.631592 H          1 MOL1         0.0794
      41    O10     14.576259   16.825629   18.100583 O.3        1 MOL1        -0.5486
      42    H20     14.011061   17.629878   18.079223 H          1 MOL1         0.3769
      43    C13     18.520051   23.950164   21.797851 C.3        1 MOL1         0.2972
      44    H21     18.885192   24.950590   22.062530 H          1 MOL1         0.0751
      45    O11     19.578637   23.116788   21.283119 O.3        1 MOL1        -0.3740
      46    C14     17.879518   23.267753   23.033716 C.3        1 MOL1         0.1003
      47    H22     17.033169   23.892968   23.346635 H          1 MOL1         0.0783
      48    O12     18.801627   23.157725   24.125690 O.3        1 MOL1        -0.5519
      49    H23     18.405273   22.480289   24.721329 H          1 MOL1         0.3769
      50    C15     17.321771   21.873765   22.671185 C.3        1 MOL1         0.1053
      51    H24     18.165999   21.216209   22.423424 H          1 MOL1         0.0783
      52    O13     16.601156   21.360953   23.797319 O.3        1 MOL1        -0.5519
      53    H25     15.862683   20.814681   23.437136 H          1 MOL1         0.3769
      54    C16     16.387920   21.940192   21.438068 C.3        1 MOL1         0.1018
      55    H26     15.430059   22.380807   21.746267 H          1 MOL1         0.0783
      56    C17     17.004780   22.770614   20.276666 C.3        1 MOL1         0.1043
      57    H27     17.835581   22.196229   19.845547 H          1 MOL1         0.0783
      58    O14     17.498127   24.038754   20.780483 O.3        1 MOL1        -0.3740
      59    C18     16.006194   23.072974   19.137402 C.3        1 MOL1         0.0138
      60    H28     15.709729   22.128827   18.661424 H          1 MOL1         0.0794
      61    H29     16.514478   23.677294   18.374110 H          1 MOL1         0.0794
      62    O15     14.852607   23.761607   19.629059 O.3        1 MOL1        -0.5486
      63    H30     15.184757   24.578139   20.064371 H          1 MOL1         0.3769
      64    C19     23.665712   22.867870   20.933338 C.3        1 MOL1         0.2972
      65    H31     24.741044   22.981326   20.744663 H          1 MOL1         0.0751
      66    O16     23.313390   21.489543   21.177880 O.3        1 MOL1        -0.3740
      67    C20     23.213473   23.739705   22.132854 C.3        1 MOL1         0.1003
      68    H32     23.379091   24.787674   21.852122 H          1 MOL1         0.0783
      69    O17     23.995094   23.447725   23.301732 O.3        1 MOL1        -0.5519
      70    H33     23.743984   22.536174   23.593813 H          1 MOL1         0.3769
      71    C21     21.694135   23.553917   22.392587 C.3        1 MOL1         0.1053
      72    H34     21.534074   22.527801   22.753193 H          1 MOL1         0.0783
      73    O18     21.249078   24.489801   23.381164 O.3        1 MOL1        -0.5519
      74    H35     20.421252   24.106030   23.762027 H          1 MOL1         0.3769
      75    C22     20.861820   23.746631   21.091287 C.3        1 MOL1         0.1018
      76    H36     20.753744   24.819694   20.884931 H          1 MOL1         0.0783
      77    C23     21.490265   23.066032   19.842955 C.3        1 MOL1         0.1043
      78    H37     21.312210   21.986216   19.905787 H          1 MOL1         0.0783
      79    O19     22.915951   23.316902   19.786733 O.3        1 MOL1        -0.3740
      80    C24     20.869144   23.558726   18.517395 C.3        1 MOL1         0.0138
      81    H38     19.788044   23.365746   18.535579 H          1 MOL1         0.0794
      82    H39     21.294624   22.974664   17.690519 H          1 MOL1         0.0794
      83    O20     21.119015   24.953542   18.319138 O.3        1 MOL1        -0.5486
      84    H40     22.091885   25.069248   18.402759 H          1 MOL1         0.3769
      85    C25     24.853076   17.770252   22.063419 C.3        1 MOL1         0.2972
      86    H41     25.459031   16.900828   22.347076 H          1 MOL1         0.0751
      87    O21     23.622662   17.376895   21.416507 O.3        1 MOL1        -0.3740
      88    C26     24.504296   18.618064   23.312380 C.3        1 MOL1         0.1003
      89    H42     25.448017   18.993394   23.728658 H          1 MOL1         0.0783
      90    O22     23.859840   17.793811   24.298034 O.3        1 MOL1        -0.5519
      91    H43     23.131893   18.320235   24.721392 H          1 MOL1         0.3769
      92    C27     23.648588   19.848016   22.906018 C.3        1 MOL1         0.1053
      93    H44     22.682235   19.495087   22.529751 H          1 MOL1         0.0783
      94    O23     23.444805   20.702622   24.038852 O.3        1 MOL1        -0.5519
      95    H45     22.793173   20.239268   24.627328 H          1 MOL1         0.3769
      96    C28     24.327343   20.648489   21.761505 C.3        1 MOL1         0.1018
      97    H46     25.153447   21.234825   22.185189 H          1 MOL1         0.0783
      98    C29     24.855183   19.738587   20.615560 C.3        1 MOL1         0.1043
      99    H47     23.991760   19.367480   20.047694 H          1 MOL1         0.0783
     100    O24     25.592566   18.618076   21.160560 O.3        1 MOL1        -0.3740
     101    C30     25.782615   20.473361   19.621971 C.3        1 MOL1         0.0138
     102    H48     25.207140   21.251481   19.103262 H          1 MOL1         0.0794
     103    H49     26.121750   19.757483   18.861210 H          1 MOL1         0.0794
     104    O25     26.904994   21.053981   20.292624 O.3        1 MOL1        -0.5486
     105    H50     27.359631   20.316257   20.757005 H          1 MOL1         0.3769
     106    C31     21.318508   13.943122   20.881729 C.3        1 MOL1         0.2972
     107    H51     20.944769   12.948149   20.607531 H          1 MOL1         0.0751
     108    O26     20.251114   14.816855   21.294735 O.3        1 MOL1        -0.3740
     109    C32     22.349841   13.848234   22.033955 C.3        1 MOL1         0.1003
     110    H52     23.179480   13.222434   21.680099 H          1 MOL1         0.0783
     111    O27     21.775817   13.252620   23.205704 O.3        1 MOL1        -0.5519
     112    H53     22.468847   13.350976   23.897034 H          1 MOL1         0.3769
     113    C33     22.921099   15.242895   22.385684 C.3        1 MOL1         0.1053
     114    H54     22.106869   15.844825   22.812672 H          1 MOL1         0.0783
     115    O28     23.961239   15.077033   23.356579 O.3        1 MOL1        -0.5519
     116    H55     24.034531   15.948404   23.819836 H          1 MOL1         0.3769
     117    C34     23.450672   15.975907   21.119157 C.3        1 MOL1         0.1018
     118    H56     24.395779   15.521374   20.794042 H          1 MOL1         0.0783
     119    C35     22.430881   15.914552   19.949239 C.3        1 MOL1         0.1043
     120    H57     21.576912   16.558580   20.198507 H          1 MOL1         0.0783
     121    O29     21.979140   14.551541   19.752634 O.3        1 MOL1        -0.3740
     122    C36     23.017397   16.410768   18.609013 C.3        1 MOL1         0.0138
     123    H58     23.349905   17.450597   18.725404 H          1 MOL1         0.0794
     124    H59     22.221410   16.403086   17.852545 H          1 MOL1         0.0794
     125    O30     24.108999   15.586911   18.188594 O.3        1 MOL1        -0.5486
     126    H60     23.768950   14.664443   18.192543 H          1 MOL1         0.3769
     127    C1      20.426248   19.369071   25.280177 C.2        1 MOL1         0.6173
     128    O1      19.852934   19.948442   26.181679 O.co2      1 MOL1        -0.6755
     129    O2      21.594265   19.027597   25.347077 O.co2      1 MOL1        -0.6755
     130    C2      19.685755   19.181194   24.003773 C.2        1 MOL1        -0.1504
     131    H1      18.702889   19.639634   23.962321 H          1 MOL1         0.0814
     132    C3      20.181116   18.524224   22.930662 C.2        1 MOL1        -0.1394
     133    H2      21.155171   18.041557   22.974325 H          1 MOL1         0.0817
     134    C4      19.487515   18.462027   21.588212 C.3        1 MOL1        -0.1849
     135    H3      18.433979   18.752155   21.689955 H          1 MOL1         0.0736
     136    H4      19.500528   17.436592   21.200685 H          1 MOL1         0.0736
     137    C5      20.198642   19.403099   20.595998 C.3        1 MOL1        -0.1866
     138    H5      20.211198   20.416110   21.018014 H          1 MOL1         0.0738
     139    H6      21.246851   19.093541   20.484971 H          1 MOL1         0.0738
     140    C6      19.521207   19.429909   19.212152 C.3        1 MOL1        -0.2879
     141    H7      19.443848   18.418921   18.792034 H          1 MOL1         0.0750
     142    H8      18.513891   19.858001   19.279964 H          1 MOL1         0.0750
     143    H9      20.100128   20.046387   18.513003 H          1 MOL1         0.0750
@<TRIPOS>BOND
    1     1     2    1
    2     1     3    1
    3     1     4    1
    4     4     5    1
    5     4     6    1
    6     6     7    1
    7     4     8    1
    8     8     9    1
    9     8    10    1
   10    10    11    1
   11     8    12    1
   12    12    13    1
   13    12    14    1
   14    14    15    1
   15     1    16    1
   16    14    16    1
   17    14    17    1
   18    17    18    1
   19    17    19    1
   20    17    20    1
   21    20    21    1
   22    22    23    1
   23    22    24    1
   24    22    25    1
   25    25    26    1
   26    25    27    1
   27    27    28    1
   28    25    29    1
   29    29    30    1
   30    29    31    1
   31    31    32    1
   32     3    33    1
   33    29    33    1
   34    33    34    1
   35    33    35    1
   36    35    36    1
   37    22    37    1
   38    35    37    1
   39    35    38    1
   40    38    39    1
   41    38    40    1
   42    38    41    1
   43    41    42    1
   44    43    44    1
   45    43    45    1
   46    43    46    1
   47    46    47    1
   48    46    48    1
   49    48    49    1
   50    46    50    1
   51    50    51    1
   52    50    52    1
   53    52    53    1
   54    24    54    1
   55    50    54    1
   56    54    55    1
   57    54    56    1
   58    56    57    1
   59    43    58    1
   60    56    58    1
   61    56    59    1
   62    59    60    1
   63    59    61    1
   64    59    62    1
   65    62    63    1
   66    64    65    1
   67    64    66    1
   68    64    67    1
   69    67    68    1
   70    67    69    1
   71    69    70    1
   72    67    71    1
   73    71    72    1
   74    71    73    1
   75    73    74    1
   76    45    75    1
   77    71    75    1
   78    75    76    1
   79    75    77    1
   80    77    78    1
   81    64    79    1
   82    77    79    1
   83    77    80    1
   84    80    81    1
   85    80    82    1
   86    80    83    1
   87    83    84    1
   88    85    86    1
   89    85    87    1
   90    85    88    1
   91    88    89    1
   92    88    90    1
   93    90    91    1
   94    88    92    1
   95    92    93    1
   96    92    94    1
   97    94    95    1
   98    66    96    1
   99    92    96    1
  100    96    97    1
  101    96    98    1
  102    98    99    1
  103    85   100    1
  104    98   100    1
  105    98   101    1
  106   101   102    1
  107   101   103    1
  108   101   104    1
  109   104   105    1
  110   106   107    1
  111    12   108    1
  112   106   108    1
  113   106   109    1
  114   109   110    1
  115   109   111    1
  116   111   112    1
  117   109   113    1
  118   113   114    1
  119   113   115    1
  120   115   116    1
  121    87   117    1
  122   113   117    1
  123   117   118    1
  124   117   119    1
  125   119   120    1
  126   106   121    1
  127   119   121    1
  128   119   122    1
  129   122   123    1
  130   122   124    1
  131   122   125    1
  132   125   126    1
  133   127   128    1
  134   127   129    2
  135   127   130    1
  136   130   131    1
  137   130   132    2
  138   132   133    1
  139   132   134    1
  140   134   135    1
  141   134   136    1
  142   134   137    1
  143   137   138    1
  144   137   139    1
  145   137   140    1
  146   140   141    1
  147   140   142    1
  148   140   143    1
@<TRIPOS>SUBSTRUCTURE
       1 MOL1            1 RESIDUE      1      MOL     
       2 MOL1          143 RESIDUE      1      MOL     
@<SCITEGIC>MOL_PROPERTY
VM2 Rank
SciTegic.value.IntegerValue
7

@<SCITEGIC>MOL_PROPERTY
Conf_Id
SciTegic.value.IntegerValue
25020

@<SCITEGIC>MOL_PROPERTY
Probability
SciTegic.value.DoubleValue
1.19

@<SCITEGIC>MOL_PROPERTY
Sum Probability
SciTegic.value.DoubleValue
9.75

@<SCITEGIC>MOL_PROPERTY
Delta G
SciTegic.value.DoubleValue
0.308

@<SCITEGIC>MOL_PROPERTY
G
SciTegic.value.DoubleValue
488.142

@<SCITEGIC>MOL_PROPERTY
E
SciTegic.value.DoubleValue
305.471

@<SCITEGIC>MOL_PROPERTY
-TS
SciTegic.value.DoubleValue
182.671

@<SCITEGIC>MOL_PROPERTY
U+W
SciTegic.value.DoubleValue
179.383

@<SCITEGIC>MOL_PROPERTY
U
SciTegic.value.DoubleValue
252.268

@<SCITEGIC>MOL_PROPERTY
W
SciTegic.value.DoubleValue
-72.885

@<SCITEGIC>MOL_PROPERTY
W(PB)
SciTegic.value.DoubleValue
-78.966

@<SCITEGIC>MOL_PROPERTY
W(SA)
SciTegic.value.DoubleValue
6.080

@<SCITEGIC>MOL_PROPERTY
Valence
SciTegic.value.DoubleValue
145.535

@<SCITEGIC>MOL_PROPERTY
Coulomb
SciTegic.value.DoubleValue
128.679

@<SCITEGIC>MOL_PROPERTY
VdW
SciTegic.value.DoubleValue
-21.945

@<SCITEGIC>MOL_PROPERTY
VdW6
SciTegic.value.DoubleValue
-175.294

@<SCITEGIC>MOL_PROPERTY
VdW12
SciTegic.value.DoubleValue
153.349

@<SCITEGIC>MOL_PROPERTY
Bond
SciTegic.value.DoubleValue
4.634

@<SCITEGIC>MOL_PROPERTY
Angle
SciTegic.value.DoubleValue
12.305

@<SCITEGIC>MOL_PROPERTY
Pdih
SciTegic.value.DoubleValue
128.567

@<SCITEGIC>MOL_PROPERTY
Idih
SciTegic.value.DoubleValue
0.028

@<SCITEGIC>MOL_PROPERTY
Tether
SciTegic.value.DoubleValue
0.000

@<TRIPOS>MOLECULE
CD_guest-s19_vm2_rndm.mol2 : vm2 host+ligand conformer 8
         143         148           2
SMALL
USER_CHARGES
 
@<TRIPOS>ATOM
       1    C1      16.271683   15.184773   20.763084 C.3        1 MOL1         0.2972
       2    H1      15.225668   15.012648   20.478380 H          1 MOL1         0.0751
       3    O1      16.487892   16.537702   21.206401 O.3        1 MOL1        -0.3740
       4    C2      16.701768   14.223068   21.898355 C.3        1 MOL1         0.1003
       5    H2      16.579505   13.198764   21.522866 H          1 MOL1         0.0783
       6    O2      15.892397   14.395369   23.069812 O.3        1 MOL1        -0.5519
       7    H3      16.321028   13.830152   23.751436 H          1 MOL1         0.3769
       8    C3      18.193098   14.423189   22.260631 C.3        1 MOL1         0.1053
       9    H4      18.301513   15.417112   22.716716 H          1 MOL1         0.0783
      10    O3      18.569761   13.412195   23.202717 O.3        1 MOL1        -0.5519
      11    H5      19.356147   13.774289   23.682091 H          1 MOL1         0.3769
      12    C4      19.097862   14.369706   20.995241 C.3        1 MOL1         0.1018
      13    H6      19.178601   13.333642   20.640602 H          1 MOL1         0.0783
      14    C5      18.539323   15.248791   19.844248 C.3        1 MOL1         0.1043
      15    H7      18.665542   16.307362   20.109509 H          1 MOL1         0.0783
      16    O4      17.138905   14.939315   19.636282 O.3        1 MOL1        -0.3740
      17    C6      19.273323   14.991857   18.511559 C.3        1 MOL1         0.0138
      18    H8      19.130534   13.943995   18.215707 H          1 MOL1         0.0794
      19    H9      20.349642   15.156338   18.652579 H          1 MOL1         0.0794
      20    O5      18.774230   15.869928   17.500910 O.3        1 MOL1        -0.5486
      21    H10     17.795488   15.789339   17.533758 H          1 MOL1         0.3769
      22    C7      14.664215   20.191719   21.639071 C.3        1 MOL1         0.2972
      23    H11     13.994729   21.052537   21.761522 H          1 MOL1         0.0751
      24    O6      16.016643   20.600384   21.354197 O.3        1 MOL1        -0.3740
      25    C8      14.661344   19.328214   22.923697 C.3        1 MOL1         0.1003
      26    H12     13.638988   18.953291   23.062959 H          1 MOL1         0.0783
      27    O7      15.038850   20.098159   24.073179 O.3        1 MOL1        -0.5519
      28    H13     15.198627   19.428762   24.776143 H          1 MOL1         0.3769
      29    C9      15.596105   18.106760   22.769238 C.3        1 MOL1         0.1053
      30    H14     16.631908   18.470115   22.738493 H          1 MOL1         0.0783
      31    O8      15.420396   17.232302   23.890137 O.3        1 MOL1        -0.5519
      32    H15     15.786573   16.354478   23.622042 H          1 MOL1         0.3769
      33    C10     15.311330   17.326621   21.459882 C.3        1 MOL1         0.1018
      34    H16     14.423651   16.699196   21.616973 H          1 MOL1         0.0783
      35    C11     15.101884   18.247513   20.223066 C.3        1 MOL1         0.1043
      36    H17     16.081845   18.639389   19.919598 H          1 MOL1         0.0783
      37    O9      14.218922   19.348161   20.556633 O.3        1 MOL1        -0.3740
      38    C12     14.497934   17.516396   19.003429 C.3        1 MOL1         0.0138
      39    H18     15.207006   16.754866   18.653529 H          1 MOL1         0.0794
      40    H19     14.368671   18.240027   18.187414 H          1 MOL1         0.0794
      41    O10     13.244500   16.910336   19.332085 O.3        1 MOL1        -0.5486
      42    H20     12.666848   17.634921   19.660574 H          1 MOL1         0.3769
      43    C13     18.444400   23.894318   20.761039 C.3        1 MOL1         0.2972
      44    H21     18.879468   24.867024   20.497744 H          1 MOL1         0.0751
      45    O11     19.466906   22.934480   21.100827 O.3        1 MOL1        -0.3740
      46    C14     17.441449   24.032356   21.938146 C.3        1 MOL1         0.1003
      47    H22     16.633987   24.695036   21.600275 H          1 MOL1         0.0783
      48    O12     18.052141   24.600463   23.102834 O.3        1 MOL1        -0.5519
      49    H23     17.356922   24.552336   23.797646 H          1 MOL1         0.3769
      50    C15     16.813439   22.662806   22.287680 C.3        1 MOL1         0.1053
      51    H24     17.608314   22.011010   22.676758 H          1 MOL1         0.0783
      52    O13     15.800464   22.838917   23.285550 O.3        1 MOL1        -0.5519
      53    H25     15.549964   21.931393   23.591246 H          1 MOL1         0.3769
      54    C16     16.209539   21.988395   21.029453 C.3        1 MOL1         0.1018
      55    H26     15.267026   22.483451   20.760266 H          1 MOL1         0.0783
      56    C17     17.168314   22.031927   19.809893 C.3        1 MOL1         0.1043
      57    H27     17.983262   21.322127   19.991376 H          1 MOL1         0.0783
      58    O14     17.706578   23.367542   19.638683 O.3        1 MOL1        -0.3740
      59    C18     16.479142   21.630986   18.487126 C.3        1 MOL1         0.0138
      60    H28     16.074016   20.615646   18.585767 H          1 MOL1         0.0794
      61    H29     17.233864   21.608614   17.689699 H          1 MOL1         0.0794
      62    O15     15.432952   22.548544   18.154905 O.3        1 MOL1        -0.5486
      63    H30     15.843007   23.442105   18.165081 H          1 MOL1         0.3769
      64    C19     23.516751   22.621680   21.962948 C.3        1 MOL1         0.2972
      65    H31     24.562484   22.799173   22.244320 H          1 MOL1         0.0751
      66    O16     23.332328   21.304645   21.404970 O.3        1 MOL1        -0.3740
      67    C20     22.592012   22.794591   23.195079 C.3        1 MOL1         0.1003
      68    H32     22.703758   23.830329   23.541307 H          1 MOL1         0.0783
      69    O17     22.949366   21.908593   24.263815 O.3        1 MOL1        -0.5519
      70    H33     22.159168   21.893239   24.852074 H          1 MOL1         0.3769
      71    C21     21.110485   22.587705   22.810137 C.3        1 MOL1         0.1053
      72    H34     20.968995   21.535355   22.528963 H          1 MOL1         0.0783
      73    O18     20.292215   22.919092   23.937606 O.3        1 MOL1        -0.5519
      74    H35     19.451102   23.289520   23.578640 H          1 MOL1         0.3769
      75    C22     20.711506   23.465210   21.598593 C.3        1 MOL1         0.1018
      76    H36     20.605234   24.504600   21.937701 H          1 MOL1         0.0783
      77    C23     21.752483   23.386719   20.445579 C.3        1 MOL1         0.1043
      78    H37     21.678869   22.394092   19.981665 H          1 MOL1         0.0783
      79    O19     23.090999   23.581523   20.970712 O.3        1 MOL1        -0.3740
      80    C24     21.524371   24.437575   19.336442 C.3        1 MOL1         0.0138
      81    H38     20.565082   24.233957   18.842332 H          1 MOL1         0.0794
      82    H39     22.311362   24.326711   18.578466 H          1 MOL1         0.0794
      83    O20     21.532790   25.764684   19.870675 O.3        1 MOL1        -0.5486
      84    H40     22.400439   25.874685   20.319699 H          1 MOL1         0.3769
      85    C25     25.172128   17.657566   20.955358 C.3        1 MOL1         0.2972
      86    H41     25.811868   16.790867   20.744716 H          1 MOL1         0.0751
      87    O21     23.801134   17.263014   21.175313 O.3        1 MOL1        -0.3740
      88    C26     25.688236   18.447893   22.185193 C.3        1 MOL1         0.1003
      89    H42     26.679908   18.839804   21.925452 H          1 MOL1         0.0783
      90    O22     25.818395   17.588494   23.328378 O.3        1 MOL1        -0.5519
      91    H43     24.901550   17.338525   23.604421 H          1 MOL1         0.3769
      92    C27     24.761774   19.659464   22.475393 C.3        1 MOL1         0.1053
      93    H44     23.790752   19.271159   22.814378 H          1 MOL1         0.0783
      94    O23     25.337551   20.482295   23.496524 O.3        1 MOL1        -0.5519
      95    H45     24.586156   20.993421   23.886147 H          1 MOL1         0.3769
      96    C28     24.522701   20.517178   21.198541 C.3        1 MOL1         0.1018
      97    H46     25.398403   21.155214   21.020280 H          1 MOL1         0.0783
      98    C29     24.260545   19.672127   19.920367 C.3        1 MOL1         0.1043
      99    H47     23.236792   19.282323   19.961910 H          1 MOL1         0.0783
     100    O24     25.194088   18.567427   19.837257 O.3        1 MOL1        -0.3740
     101    C30     24.386201   20.498235   18.621380 C.3        1 MOL1         0.0138
     102    H48     23.676146   21.335296   18.659857 H          1 MOL1         0.0794
     103    H49     24.102101   19.863510   17.771488 H          1 MOL1         0.0794
     104    O25     25.719497   20.988454   18.450244 O.3        1 MOL1        -0.5486
     105    H50     26.307430   20.202907   18.514260 H          1 MOL1         0.3769
     106    C31     21.352745   14.033005   21.939043 C.3        1 MOL1         0.2972
     107    H51     20.907323   13.062392   22.190269 H          1 MOL1         0.0751
     108    O26     20.395910   14.913677   21.310092 O.3        1 MOL1        -0.3740
     109    C32     21.900344   14.723467   23.213791 C.3        1 MOL1         0.1003
     110    H52     22.696943   14.084726   23.616562 H          1 MOL1         0.0783
     111    O27     20.857096   14.835379   24.196145 O.3        1 MOL1        -0.5519
     112    H53     20.949381   15.710748   24.655950 H          1 MOL1         0.3769
     113    C33     22.534816   16.093896   22.855149 C.3        1 MOL1         0.1053
     114    H54     21.746108   16.762658   22.493610 H          1 MOL1         0.0783
     115    O28     23.162495   16.663577   24.011361 O.3        1 MOL1        -0.5519
     116    H55     22.430595   16.973036   24.606392 H          1 MOL1         0.3769
     117    C34     23.577002   15.945604   21.713889 C.3        1 MOL1         0.1018
     118    H56     24.495090   15.510766   22.130783 H          1 MOL1         0.0783
     119    C35     23.062979   15.071256   20.534615 C.3        1 MOL1         0.1043
     120    H57     22.311766   15.650837   19.981641 H          1 MOL1         0.0783
     121    O29     22.461935   13.851882   21.034543 O.3        1 MOL1        -0.3740
     122    C36     24.171156   14.673555   19.534020 C.3        1 MOL1         0.0138
     123    H58     24.558484   15.579738   19.049710 H          1 MOL1         0.0794
     124    H59     23.728316   14.048051   18.747424 H          1 MOL1         0.0794
     125    O30     25.232273   13.971349   20.187860 O.3        1 MOL1        -0.5486
     126    H60     24.819626   13.192461   20.623321 H          1 MOL1         0.3769
     127    C1      20.500657   18.557481   25.310827 C.2        1 MOL1         0.6173
     128    O1      20.715969   19.316462   26.235293 O.co2      1 MOL1        -0.6755
     129    O2      20.782758   17.372293   25.344899 O.co2      1 MOL1        -0.6755
     130    C2      19.977295   19.143989   24.047995 C.2        1 MOL1        -0.1504
     131    H1      19.891180   20.225816   24.035938 H          1 MOL1         0.0814
     132    C3      19.655605   18.418781   22.952954 C.2        1 MOL1        -0.1394
     133    H2      19.717413   17.332626   22.966559 H          1 MOL1         0.0817
     134    C4      19.267237   19.028172   21.624469 C.3        1 MOL1        -0.1849
     135    H3      18.984495   20.080552   21.755206 H          1 MOL1         0.0736
     136    H4      18.393712   18.511306   21.209686 H          1 MOL1         0.0736
     137    C5      20.450678   18.918867   20.642865 C.3        1 MOL1        -0.1866
     138    H5      21.329298   19.397981   21.093258 H          1 MOL1         0.0738
     139    H6      20.706919   17.860679   20.495815 H          1 MOL1         0.0738
     140    C6      20.153388   19.567090   19.276972 C.3        1 MOL1        -0.2879
     141    H7      20.015955   20.649943   19.380015 H          1 MOL1         0.0750
     142    H8      20.986807   19.399544   18.583253 H          1 MOL1         0.0750
     143    H9      19.247625   19.138980   18.828104 H          1 MOL1         0.0750
@<TRIPOS>BOND
    1     1     2    1
    2     1     3    1
    3     1     4    1
    4     4     5    1
    5     4     6    1
    6     6     7    1
    7     4     8    1
    8     8     9    1
    9     8    10    1
   10    10    11    1
   11     8    12    1
   12    12    13    1
   13    12    14    1
   14    14    15    1
   15     1    16    1
   16    14    16    1
   17    14    17    1
   18    17    18    1
   19    17    19    1
   20    17    20    1
   21    20    21    1
   22    22    23    1
   23    22    24    1
   24    22    25    1
   25    25    26    1
   26    25    27    1
   27    27    28    1
   28    25    29    1
   29    29    30    1
   30    29    31    1
   31    31    32    1
   32     3    33    1
   33    29    33    1
   34    33    34    1
   35    33    35    1
   36    35    36    1
   37    22    37    1
   38    35    37    1
   39    35    38    1
   40    38    39    1
   41    38    40    1
   42    38    41    1
   43    41    42    1
   44    43    44    1
   45    43    45    1
   46    43    46    1
   47    46    47    1
   48    46    48    1
   49    48    49    1
   50    46    50    1
   51    50    51    1
   52    50    52    1
   53    52    53    1
   54    24    54    1
   55    50    54    1
   56    54    55    1
   57    54    56    1
   58    56    57    1
   59    43    58    1
   60    56    58    1
   61    56    59    1
   62    59    60    1
   63    59    61    1
   64    59    62    1
   65    62    63    1
   66    64    65    1
   67    64    66    1
   68    64    67    1
   69    67    68    1
   70    67    69    1
   71    69    70    1
   72    67    71    1
   73    71    72    1
   74    71    73    1
   75    73    74    1
   76    45    75    1
   77    71    75    1
   78    75    76    1
   79    75    77    1
   80    77    78    1
   81    64    79    1
   82    77    79    1
   83    77    80    1
   84    80    81    1
   85    80    82    1
   86    80    83    1
   87    83    84    1
   88    85    86    1
   89    85    87    1
   90    85    88    1
   91    88    89    1
   92    88    90    1
   93    90    91    1
   94    88    92    1
   95    92    93    1
   96    92    94    1
   97    94    95    1
   98    66    96    1
   99    92    96    1
  100    96    97    1
  101    96    98    1
  102    98    99    1
  103    85   100    1
  104    98   100    1
  105    98   101    1
  106   101   102    1
  107   101   103    1
  108   101   104    1
  109   104   105    1
  110   106   107    1
  111    12   108    1
  112   106   108    1
  113   106   109    1
  114   109   110    1
  115   109   111    1
  116   111   112    1
  117   109   113    1
  118   113   114    1
  119   113   115    1
  120   115   116    1
  121    87   117    1
  122   113   117    1
  123   117   118    1
  124   117   119    1
  125   119   120    1
  126   106   121    1
  127   119   121    1
  128   119   122    1
  129   122   123    1
  130   122   124    1
  131   122   125    1
  132   125   126    1
  133   127   128    1
  134   127   129    2
  135   127   130    1
  136   130   131    1
  137   130   132    2
  138   132   133    1
  139   132   134    1
  140   134   135    1
  141   134   136    1
  142   134   137    1
  143   137   138    1
  144   137   139    1
  145   137   140    1
  146   140   141    1
  147   140   142    1
  148   140   143    1
@<TRIPOS>SUBSTRUCTURE
       1 MOL1            1 RESIDUE      1      MOL     
       2 MOL1          143 RESIDUE      1      MOL     
@<SCITEGIC>MOL_PROPERTY
VM2 Rank
SciTegic.value.IntegerValue
8

@<SCITEGIC>MOL_PROPERTY
Conf_Id
SciTegic.value.IntegerValue
24627

@<SCITEGIC>MOL_PROPERTY
Probability
SciTegic.value.DoubleValue
1.14

@<SCITEGIC>MOL_PROPERTY
Sum Probability
SciTegic.value.DoubleValue
10.89

@<SCITEGIC>MOL_PROPERTY
Delta G
SciTegic.value.DoubleValue
0.334

@<SCITEGIC>MOL_PROPERTY
G
SciTegic.value.DoubleValue
488.168

@<SCITEGIC>MOL_PROPERTY
E
SciTegic.value.DoubleValue
305.783

@<SCITEGIC>MOL_PROPERTY
-TS
SciTegic.value.DoubleValue
182.384

@<SCITEGIC>MOL_PROPERTY
U+W
SciTegic.value.DoubleValue
179.695

@<SCITEGIC>MOL_PROPERTY
U
SciTegic.value.DoubleValue
253.000

@<SCITEGIC>MOL_PROPERTY
W
SciTegic.value.DoubleValue
-73.305

@<SCITEGIC>MOL_PROPERTY
W(PB)
SciTegic.value.DoubleValue
-79.449

@<SCITEGIC>MOL_PROPERTY
W(SA)
SciTegic.value.DoubleValue
6.144

@<SCITEGIC>MOL_PROPERTY
Valence
SciTegic.value.DoubleValue
145.755

@<SCITEGIC>MOL_PROPERTY
Coulomb
SciTegic.value.DoubleValue
129.587

@<SCITEGIC>MOL_PROPERTY
VdW
SciTegic.value.DoubleValue
-22.343

@<SCITEGIC>MOL_PROPERTY
VdW6
SciTegic.value.DoubleValue
-175.022

@<SCITEGIC>MOL_PROPERTY
VdW12
SciTegic.value.DoubleValue
152.679

@<SCITEGIC>MOL_PROPERTY
Bond
SciTegic.value.DoubleValue
4.597

@<SCITEGIC>MOL_PROPERTY
Angle
SciTegic.value.DoubleValue
12.185

@<SCITEGIC>MOL_PROPERTY
Pdih
SciTegic.value.DoubleValue
128.944

@<SCITEGIC>MOL_PROPERTY
Idih
SciTegic.value.DoubleValue
0.030

@<SCITEGIC>MOL_PROPERTY
Tether
SciTegic.value.DoubleValue
0.000

