@<TRIPOS>MOLECULE
CD_guest-s12_vm2_rndm.mol2 : vm2 host+ligand conformer 1
         152         157           2
SMALL
USER_CHARGES
 
@<TRIPOS>ATOM
       1    C1      16.261062   15.317088   20.672157 C.3        1 MOL1         0.2972
       2    H1      15.224340   15.123005   20.367753 H          1 MOL1         0.0751
       3    O1      16.432429   16.660803   21.158221 O.3        1 MOL1        -0.3740
       4    C2      16.708191   14.339464   21.788344 C.3        1 MOL1         0.1003
       5    H2      16.627813   13.323327   21.380689 H          1 MOL1         0.0783
       6    O2      15.866598   14.445154   22.947915 O.3        1 MOL1        -0.5519
       7    H3      15.844082   15.399137   23.214762 H          1 MOL1         0.3769
       8    C3      18.189110   14.582678   22.172742 C.3        1 MOL1         0.1053
       9    H4      18.260094   15.571700   22.645931 H          1 MOL1         0.0783
      10    O3      18.586516   13.570574   23.104514 O.3        1 MOL1        -0.5519
      11    H5      17.810190   13.457014   23.699433 H          1 MOL1         0.3769
      12    C4      19.105160   14.582113   20.913877 C.3        1 MOL1         0.1018
      13    H6      19.205975   13.558892   20.527994 H          1 MOL1         0.0783
      14    C5      18.535654   15.484297   19.787514 C.3        1 MOL1         0.1043
      15    H7      18.618123   16.533151   20.097811 H          1 MOL1         0.0783
      16    O4      17.149866   15.136498   19.549748 O.3        1 MOL1        -0.3740
      17    C6      19.297480   15.314829   18.456639 C.3        1 MOL1         0.0138
      18    H8      19.135134   14.299364   18.071345 H          1 MOL1         0.0794
      19    H9      20.373594   15.435461   18.636068 H          1 MOL1         0.0794
      20    O5      18.852304   16.290144   17.511738 O.3        1 MOL1        -0.5486
      21    H10     17.876870   16.192296   17.457024 H          1 MOL1         0.3769
      22    C7      14.575915   20.224051   21.823340 C.3        1 MOL1         0.2972
      23    H11     13.932553   21.094630   22.005207 H          1 MOL1         0.0751
      24    O6      15.923689   20.609476   21.485904 O.3        1 MOL1        -0.3740
      25    C8      14.626579   19.321499   23.079605 C.3        1 MOL1         0.1003
      26    H12     13.612495   18.939123   23.254508 H          1 MOL1         0.0783
      27    O7      15.058857   20.063078   24.231417 O.3        1 MOL1        -0.5519
      28    H13     15.444845   20.912820   23.903622 H          1 MOL1         0.3769
      29    C9      15.560705   18.114586   22.836500 C.3        1 MOL1         0.1053
      30    H14     16.584030   18.500718   22.775746 H          1 MOL1         0.0783
      31    O8      15.466245   17.204406   23.936131 O.3        1 MOL1        -0.5519
      32    H15     15.515035   17.772364   24.737549 H          1 MOL1         0.3769
      33    C10     15.234816   17.375993   21.511579 C.3        1 MOL1         0.1018
      34    H16     14.389022   16.698950   21.691676 H          1 MOL1         0.0783
      35    C11     14.916827   18.326937   20.319628 C.3        1 MOL1         0.1043
      36    H17     15.867038   18.731721   19.946481 H          1 MOL1         0.0783
      37    O9      14.061119   19.418522   20.743725 O.3        1 MOL1        -0.3740
      38    C12     14.224613   17.619582   19.133502 C.3        1 MOL1         0.0138
      39    H18     14.910378   16.874155   18.709879 H          1 MOL1         0.0794
      40    H19     14.025087   18.360862   18.348112 H          1 MOL1         0.0794
      41    O10     13.006636   16.992572   19.544768 O.3        1 MOL1        -0.5486
      42    H20     12.447209   17.702717   19.931196 H          1 MOL1         0.3769
      43    C13     18.384441   23.854978   20.786574 C.3        1 MOL1         0.2972
      44    H21     18.813503   24.823583   20.502011 H          1 MOL1         0.0751
      45    O11     19.419387   22.883299   21.056362 O.3        1 MOL1        -0.3740
      46    C14     17.437992   24.008878   22.010178 C.3        1 MOL1         0.1003
      47    H22     16.633210   24.690920   21.706292 H          1 MOL1         0.0783
      48    O12     18.107888   24.568436   23.149108 O.3        1 MOL1        -0.5519
      49    H23     18.776036   23.898990   23.443370 H          1 MOL1         0.3769
      50    C15     16.792971   22.652136   22.376405 C.3        1 MOL1         0.1053
      51    H24     17.588716   21.985840   22.736856 H          1 MOL1         0.0783
      52    O13     15.820358   22.843841   23.408348 O.3        1 MOL1        -0.5519
      53    H25     16.237910   23.468242   24.043485 H          1 MOL1         0.3769
      54    C16     16.131555   21.989917   21.141215 C.3        1 MOL1         0.1018
      55    H26     15.191319   22.502784   20.898060 H          1 MOL1         0.0783
      56    C17     17.051919   22.005972   19.893095 C.3        1 MOL1         0.1043
      57    H27     17.860922   21.289085   20.059921 H          1 MOL1         0.0783
      58    O14     17.585860   23.339838   19.702549 O.3        1 MOL1        -0.3740
      59    C18     16.307224   21.597276   18.603460 C.3        1 MOL1         0.0138
      60    H28     15.697487   22.442403   18.256863 H          1 MOL1         0.0794
      61    H29     15.623429   20.769315   18.829675 H          1 MOL1         0.0794
      62    O15     17.233085   21.190098   17.589221 O.3        1 MOL1        -0.5486
      63    H30     16.706350   20.971721   16.789813 H          1 MOL1         0.3769
      64    C19     23.421922   22.567219   22.185838 C.3        1 MOL1         0.2972
      65    H31     24.435300   22.762288   22.559866 H          1 MOL1         0.0751
      66    O16     23.340672   21.300071   21.507023 O.3        1 MOL1        -0.3740
      67    C20     22.402109   22.585295   23.354934 C.3        1 MOL1         0.1003
      68    H32     22.465388   23.576599   23.822354 H          1 MOL1         0.0783
      69    O17     22.697774   21.581291   24.339417 O.3        1 MOL1        -0.5519
      70    H33     23.623536   21.276119   24.179983 H          1 MOL1         0.3769
      71    C21     20.960972   22.389765   22.833230 C.3        1 MOL1         0.1053
      72    H34     20.885906   21.365591   22.448719 H          1 MOL1         0.0783
      73    O18     20.047341   22.570634   23.919071 O.3        1 MOL1        -0.5519
      74    H35     20.435547   22.046415   24.655565 H          1 MOL1         0.3769
      75    C22     20.630315   23.365335   21.675204 C.3        1 MOL1         0.1018
      76    H36     20.509988   24.377390   22.083690 H          1 MOL1         0.0783
      77    C23     21.745631   23.375760   20.594809 C.3        1 MOL1         0.1043
      78    H37     21.733256   22.413299   20.066325 H          1 MOL1         0.0783
      79    O19     23.027341   23.585826   21.242012 O.3        1 MOL1        -0.3740
      80    C24     21.563606   24.496881   19.551227 C.3        1 MOL1         0.0138
      81    H38     21.590824   25.472388   20.054958 H          1 MOL1         0.0794
      82    H39     20.582438   24.391035   19.070318 H          1 MOL1         0.0794
      83    O20     22.593037   24.411463   18.564481 O.3        1 MOL1        -0.5486
      84    H40     23.442311   24.397667   19.058978 H          1 MOL1         0.3769
      85    C25     25.295685   17.760104   20.995825 C.3        1 MOL1         0.2972
      86    H41     25.941753   16.899170   20.780472 H          1 MOL1         0.0751
      87    O21     23.912088   17.368702   21.137188 O.3        1 MOL1        -0.3740
      88    C26     25.763373   18.518643   22.264483 C.3        1 MOL1         0.1003
      89    H42     26.751304   18.941523   22.039686 H          1 MOL1         0.0783
      90    O22     25.883631   17.652731   23.401757 O.3        1 MOL1        -0.5519
      91    H43     24.972935   17.324774   23.611011 H          1 MOL1         0.3769
      92    C27     24.801619   19.692764   22.566870 C.3        1 MOL1         0.1053
      93    H44     23.829787   19.268012   22.855377 H          1 MOL1         0.0783
      94    O23     25.330451   20.465609   23.649933 O.3        1 MOL1        -0.5519
      95    H45     25.686106   19.803906   24.285930 H          1 MOL1         0.3769
      96    C28     24.581437   20.594136   21.318826 C.3        1 MOL1         0.1018
      97    H46     25.428003   21.285051   21.208374 H          1 MOL1         0.0783
      98    C29     24.412022   19.803290   19.992633 C.3        1 MOL1         0.1043
      99    H47     23.393080   19.401871   19.958148 H          1 MOL1         0.0783
     100    O24     25.369209   18.717390   19.919659 O.3        1 MOL1        -0.3740
     101    C30     24.617393   20.705833   18.757352 C.3        1 MOL1         0.0138
     102    H48     25.649637   21.080494   18.749276 H          1 MOL1         0.0794
     103    H49     23.947393   21.573598   18.828456 H          1 MOL1         0.0794
     104    O25     24.341412   19.974278   17.561398 O.3        1 MOL1        -0.5486
     105    H50     24.889548   19.160069   17.607524 H          1 MOL1         0.3769
     106    C31     21.331027   14.233090   21.880572 C.3        1 MOL1         0.2972
     107    H51     20.864602   13.272624   22.132839 H          1 MOL1         0.0751
     108    O26     20.391492   15.135540   21.259868 O.3        1 MOL1        -0.3740
     109    C32     21.898758   14.906778   23.155189 C.3        1 MOL1         0.1003
     110    H52     22.645878   14.222323   23.577738 H          1 MOL1         0.0783
     111    O27     20.870197   15.143166   24.130512 O.3        1 MOL1        -0.5519
     112    H53     20.125370   14.530205   23.919325 H          1 MOL1         0.3769
     113    C33     22.604365   16.236100   22.802881 C.3        1 MOL1         0.1053
     114    H54     21.841914   16.940874   22.451514 H          1 MOL1         0.0783
     115    O28     23.225620   16.751865   23.982571 O.3        1 MOL1        -0.5519
     116    H55     22.539909   16.656172   24.681933 H          1 MOL1         0.3769
     117    C34     23.642658   16.056726   21.665694 C.3        1 MOL1         0.1018
     118    H56     24.544431   15.581673   22.074414 H          1 MOL1         0.0783
     119    C35     23.084435   15.218306   20.481436 C.3        1 MOL1         0.1043
     120    H57     22.356184   15.834560   19.937896 H          1 MOL1         0.0783
     121    O29     22.431744   14.021550   20.971239 O.3        1 MOL1        -0.3740
     122    C36     24.173556   14.786388   19.474551 C.3        1 MOL1         0.0138
     123    H58     24.605823   15.682311   19.009297 H          1 MOL1         0.0794
     124    H59     23.703276   14.197697   18.675546 H          1 MOL1         0.0794
     125    O30     25.198059   14.022461   20.117294 O.3        1 MOL1        -0.5486
     126    H60     24.748268   13.254352   20.534811 H          1 MOL1         0.3769
     127    N1      19.994476   20.904231   16.630201 N.4        1 MOL1        -0.4857
     128    H1      19.174274   21.108310   17.235846 H          1 MOL1         0.3650
     129    H2      19.649212   21.061346   15.671735 H          1 MOL1         0.3650
     130    C1      20.408579   19.447813   16.788125 C.3        1 MOL1         0.0209
     131    H3      21.197740   19.246867   16.059393 H          1 MOL1         0.0967
     132    H4      19.543146   18.832177   16.527914 H          1 MOL1         0.0967
     133    C2      20.901317   19.047934   18.194766 C.3        1 MOL1        -0.1378
     134    H5      21.117854   17.971741   18.195900 H          1 MOL1         0.0993
     135    H6      21.845723   19.558555   18.404196 H          1 MOL1         0.0993
     136    C3      19.874457   19.376640   19.298539 C.3        1 MOL1        -0.1338
     137    H7      18.905357   18.929454   19.034867 H          1 MOL1         0.0993
     138    H8      19.728952   20.463134   19.342048 H          1 MOL1         0.0993
     139    C4      20.318632   18.875306   20.689910 C.3        1 MOL1        -0.1338
     140    H9      20.543501   17.802084   20.641166 H          1 MOL1         0.0993
     141    H10     21.245861   19.380743   20.992172 H          1 MOL1         0.0993
     142    C5      19.218110   19.127706   21.742194 C.3        1 MOL1        -0.1313
     143    H11     19.003571   20.202153   21.806858 H          1 MOL1         0.0993
     144    H12     18.289868   18.644266   21.413991 H          1 MOL1         0.0993
     145    C6      19.606878   18.601834   23.138988 C.3        1 MOL1        -0.2328
     146    H13     19.713622   17.510080   23.132685 H          1 MOL1         0.1004
     147    H14     18.834907   18.856251   23.876591 H          1 MOL1         0.1004
     148    H15     20.554775   19.039449   23.479710 H          1 MOL1         0.1004
     149    C7      21.153709   21.849130   16.929384 C.3        1 MOL1        -0.0781
     150    H16     21.987835   21.616475   16.263715 H          1 MOL1         0.0978
     151    H17     20.829358   22.880103   16.771072 H          1 MOL1         0.0978
     152    H18     21.466714   21.720856   17.967124 H          1 MOL1         0.0978
@<TRIPOS>BOND
    1     1     2    1
    2     1     3    1
    3     1     4    1
    4     4     5    1
    5     4     6    1
    6     6     7    1
    7     4     8    1
    8     8     9    1
    9     8    10    1
   10    10    11    1
   11     8    12    1
   12    12    13    1
   13    12    14    1
   14    14    15    1
   15     1    16    1
   16    14    16    1
   17    14    17    1
   18    17    18    1
   19    17    19    1
   20    17    20    1
   21    20    21    1
   22    22    23    1
   23    22    24    1
   24    22    25    1
   25    25    26    1
   26    25    27    1
   27    27    28    1
   28    25    29    1
   29    29    30    1
   30    29    31    1
   31    31    32    1
   32     3    33    1
   33    29    33    1
   34    33    34    1
   35    33    35    1
   36    35    36    1
   37    22    37    1
   38    35    37    1
   39    35    38    1
   40    38    39    1
   41    38    40    1
   42    38    41    1
   43    41    42    1
   44    43    44    1
   45    43    45    1
   46    43    46    1
   47    46    47    1
   48    46    48    1
   49    48    49    1
   50    46    50    1
   51    50    51    1
   52    50    52    1
   53    52    53    1
   54    24    54    1
   55    50    54    1
   56    54    55    1
   57    54    56    1
   58    56    57    1
   59    43    58    1
   60    56    58    1
   61    56    59    1
   62    59    60    1
   63    59    61    1
   64    59    62    1
   65    62    63    1
   66    64    65    1
   67    64    66    1
   68    64    67    1
   69    67    68    1
   70    67    69    1
   71    69    70    1
   72    67    71    1
   73    71    72    1
   74    71    73    1
   75    73    74    1
   76    45    75    1
   77    71    75    1
   78    75    76    1
   79    75    77    1
   80    77    78    1
   81    64    79    1
   82    77    79    1
   83    77    80    1
   84    80    81    1
   85    80    82    1
   86    80    83    1
   87    83    84    1
   88    85    86    1
   89    85    87    1
   90    85    88    1
   91    88    89    1
   92    88    90    1
   93    90    91    1
   94    88    92    1
   95    92    93    1
   96    92    94    1
   97    94    95    1
   98    66    96    1
   99    92    96    1
  100    96    97    1
  101    96    98    1
  102    98    99    1
  103    85   100    1
  104    98   100    1
  105    98   101    1
  106   101   102    1
  107   101   103    1
  108   101   104    1
  109   104   105    1
  110   106   107    1
  111    12   108    1
  112   106   108    1
  113   106   109    1
  114   109   110    1
  115   109   111    1
  116   111   112    1
  117   109   113    1
  118   113   114    1
  119   113   115    1
  120   115   116    1
  121    87   117    1
  122   113   117    1
  123   117   118    1
  124   117   119    1
  125   119   120    1
  126   106   121    1
  127   119   121    1
  128   119   122    1
  129   122   123    1
  130   122   124    1
  131   122   125    1
  132   125   126    1
  133   127   128    1
  134   127   129    1
  135   127   130    1
  136   130   131    1
  137   130   132    1
  138   130   133    1
  139   133   134    1
  140   133   135    1
  141   133   136    1
  142   136   137    1
  143   136   138    1
  144   136   139    1
  145   139   140    1
  146   139   141    1
  147   139   142    1
  148   142   143    1
  149   142   144    1
  150   142   145    1
  151   145   146    1
  152   145   147    1
  153   145   148    1
  154   127   149    1
  155   149   150    1
  156   149   151    1
  157   149   152    1
@<TRIPOS>SUBSTRUCTURE
       1 MOL1            1 RESIDUE      1      MOL     
       2 MOL1          152 RESIDUE      1      MOL     
@<SCITEGIC>MOL_PROPERTY
VM2 Rank
SciTegic.value.IntegerValue
1

@<SCITEGIC>MOL_PROPERTY
Conf_Id
SciTegic.value.IntegerValue
22335

@<SCITEGIC>MOL_PROPERTY
Probability
SciTegic.value.DoubleValue
2.36

@<SCITEGIC>MOL_PROPERTY
Sum Probability
SciTegic.value.DoubleValue
2.36

@<SCITEGIC>MOL_PROPERTY
Delta G
SciTegic.value.DoubleValue
0.000

@<SCITEGIC>MOL_PROPERTY
G
SciTegic.value.DoubleValue
594.768

@<SCITEGIC>MOL_PROPERTY
E
SciTegic.value.DoubleValue
390.478

@<SCITEGIC>MOL_PROPERTY
-TS
SciTegic.value.DoubleValue
204.290

@<SCITEGIC>MOL_PROPERTY
U+W
SciTegic.value.DoubleValue
256.342

@<SCITEGIC>MOL_PROPERTY
U
SciTegic.value.DoubleValue
319.656

@<SCITEGIC>MOL_PROPERTY
W
SciTegic.value.DoubleValue
-63.314

@<SCITEGIC>MOL_PROPERTY
W(PB)
SciTegic.value.DoubleValue
-69.239

@<SCITEGIC>MOL_PROPERTY
W(SA)
SciTegic.value.DoubleValue
5.926

@<SCITEGIC>MOL_PROPERTY
Valence
SciTegic.value.DoubleValue
146.352

@<SCITEGIC>MOL_PROPERTY
Coulomb
SciTegic.value.DoubleValue
200.742

@<SCITEGIC>MOL_PROPERTY
VdW
SciTegic.value.DoubleValue
-27.438

@<SCITEGIC>MOL_PROPERTY
VdW6
SciTegic.value.DoubleValue
-182.392

@<SCITEGIC>MOL_PROPERTY
VdW12
SciTegic.value.DoubleValue
154.954

@<SCITEGIC>MOL_PROPERTY
Bond
SciTegic.value.DoubleValue
4.404

@<SCITEGIC>MOL_PROPERTY
Angle
SciTegic.value.DoubleValue
10.365

@<SCITEGIC>MOL_PROPERTY
Pdih
SciTegic.value.DoubleValue
131.583

@<SCITEGIC>MOL_PROPERTY
Idih
SciTegic.value.DoubleValue
0.000

@<SCITEGIC>MOL_PROPERTY
Tether
SciTegic.value.DoubleValue
0.000

@<TRIPOS>MOLECULE
CD_guest-s12_vm2_rndm.mol2 : vm2 host+ligand conformer 2
         152         157           2
SMALL
USER_CHARGES
 
@<TRIPOS>ATOM
       1    C1      16.240469   15.288473   20.730499 C.3        1 MOL1         0.2972
       2    H1      15.200150   15.094181   20.438719 H          1 MOL1         0.0751
       3    O1      16.425040   16.642264   21.183016 O.3        1 MOL1        -0.3740
       4    C2      16.689491   14.335348   21.866734 C.3        1 MOL1         0.1003
       5    H2      16.601139   13.310151   21.484188 H          1 MOL1         0.0783
       6    O2      15.855712   14.473739   23.028467 O.3        1 MOL1        -0.5519
       7    H3      15.831783   15.435308   23.266431 H          1 MOL1         0.3769
       8    C3      18.174158   14.579826   22.235613 C.3        1 MOL1         0.1053
       9    H4      18.253096   15.579070   22.685461 H          1 MOL1         0.0783
      10    O3      18.573784   13.587438   23.187411 O.3        1 MOL1        -0.5519
      11    H5      17.801771   13.492044   23.791050 H          1 MOL1         0.3769
      12    C4      19.082307   14.545579   20.971714 C.3        1 MOL1         0.1018
      13    H6      19.179662   13.512475   20.612146 H          1 MOL1         0.0783
      14    C5      18.508889   15.418746   19.824540 C.3        1 MOL1         0.1043
      15    H7      18.599912   16.475663   20.103709 H          1 MOL1         0.0783
      16    O4      17.119360   15.073394   19.606603 O.3        1 MOL1        -0.3740
      17    C6      19.259156   15.205089   18.493544 C.3        1 MOL1         0.0138
      18    H8      19.087577   14.179640   18.139982 H          1 MOL1         0.0794
      19    H9      20.337386   15.323892   18.661155 H          1 MOL1         0.0794
      20    O5      18.812116   16.154390   17.523377 O.3        1 MOL1        -0.5486
      21    H10     17.835852   16.059825   17.478348 H          1 MOL1         0.3769
      22    C7      14.601082   20.241223   21.752550 C.3        1 MOL1         0.2972
      23    H11     13.963521   21.120911   21.909213 H          1 MOL1         0.0751
      24    O6      15.955470   20.608042   21.420185 O.3        1 MOL1        -0.3740
      25    C8      14.629218   19.363860   23.027611 C.3        1 MOL1         0.1003
      26    H12     13.609592   18.994340   23.197893 H          1 MOL1         0.0783
      27    O7      15.054442   20.123118   24.170379 O.3        1 MOL1        -0.5519
      28    H13     15.447821   20.965332   23.831935 H          1 MOL1         0.3769
      29    C9      15.554173   18.143515   22.820050 C.3        1 MOL1         0.1053
      30    H14     16.581841   18.518292   22.761924 H          1 MOL1         0.0783
      31    O8      15.439304   17.257995   23.937699 O.3        1 MOL1        -0.5519
      32    H15     15.483786   17.842841   24.727171 H          1 MOL1         0.3769
      33    C10     15.233407   17.380447   21.507983 C.3        1 MOL1         0.1018
      34    H16     14.376956   16.718487   21.693668 H          1 MOL1         0.0783
      35    C11     14.939673   18.309486   20.292773 C.3        1 MOL1         0.1043
      36    H17     15.898199   18.696836   19.922335 H          1 MOL1         0.0783
      37    O9      14.090336   19.418230   20.684146 O.3        1 MOL1        -0.3740
      38    C12     14.253702   17.584010   19.113996 C.3        1 MOL1         0.0138
      39    H18     14.935611   16.821202   18.715832 H          1 MOL1         0.0794
      40    H19     14.072784   18.309829   18.309885 H          1 MOL1         0.0794
      41    O10     13.023318   16.980687   19.523828 O.3        1 MOL1        -0.5486
      42    H20     12.468157   17.705750   19.888073 H          1 MOL1         0.3769
      43    C13     18.455145   23.824168   20.710284 C.3        1 MOL1         0.2972
      44    H21     18.899427   24.784567   20.418990 H          1 MOL1         0.0751
      45    O11     19.474475   22.845150   21.007312 O.3        1 MOL1        -0.3740
      46    C14     17.498563   23.999410   21.924012 C.3        1 MOL1         0.1003
      47    H22     16.705618   24.689665   21.607929 H          1 MOL1         0.0783
      48    O12     18.162942   24.554566   23.068804 O.3        1 MOL1        -0.5519
      49    H23     18.832368   23.885775   23.361709 H          1 MOL1         0.3769
      50    C15     16.833898   22.653828   22.296171 C.3        1 MOL1         0.1053
      51    H24     17.617851   21.983715   22.675175 H          1 MOL1         0.0783
      52    O13     15.850721   22.869431   23.313254 O.3        1 MOL1        -0.5519
      53    H25     16.267725   23.498049   23.944745 H          1 MOL1         0.3769
      54    C16     16.181074   21.982509   21.061656 C.3        1 MOL1         0.1018
      55    H26     15.248724   22.501281   20.801298 H          1 MOL1         0.0783
      56    C17     17.115508   21.975239   19.823994 C.3        1 MOL1         0.1043
      57    H27     17.916988   21.253686   20.007150 H          1 MOL1         0.0783
      58    O14     17.662652   23.302373   19.623926 O.3        1 MOL1        -0.3740
      59    C18     16.378924   21.557388   18.532443 C.3        1 MOL1         0.0138
      60    H28     15.776513   22.402303   18.172765 H          1 MOL1         0.0794
      61    H29     15.688763   20.735522   18.762149 H          1 MOL1         0.0794
      62    O15     17.309054   21.134252   17.528707 O.3        1 MOL1        -0.5486
      63    H30     16.785948   20.915936   16.726836 H          1 MOL1         0.3769
      64    C19     23.477766   22.547960   22.116435 C.3        1 MOL1         0.2972
      65    H31     24.494693   22.738710   22.482987 H          1 MOL1         0.0751
      66    O16     23.384933   21.278187   21.443836 O.3        1 MOL1        -0.3740
      67    C20     22.464929   22.575227   23.292258 C.3        1 MOL1         0.1003
      68    H32     22.526469   23.571965   23.748241 H          1 MOL1         0.0783
      69    O17     22.769585   21.583514   24.286364 O.3        1 MOL1        -0.5519
      70    H33     23.691879   21.272025   24.119355 H          1 MOL1         0.3769
      71    C21     21.022027   22.367713   22.780619 C.3        1 MOL1         0.1053
      72    H34     20.949715   21.341774   22.399879 H          1 MOL1         0.0783
      73    O18     20.110576   22.549908   23.868683 O.3        1 MOL1        -0.5519
      74    H35     20.504847   22.033813   24.607546 H          1 MOL1         0.3769
      75    C22     20.681316   23.338386   21.623608 C.3        1 MOL1         0.1018
      76    H36     20.549190   24.346400   22.037846 H          1 MOL1         0.0783
      77    C23     21.792813   23.366431   20.538370 C.3        1 MOL1         0.1043
      78    H37     21.781295   22.405695   20.007018 H          1 MOL1         0.0783
      79    O19     23.084047   23.564921   21.169268 O.3        1 MOL1        -0.3740
      80    C24     21.603757   24.481978   19.486434 C.3        1 MOL1         0.0138
      81    H38     20.687898   24.282612   18.914234 H          1 MOL1         0.0794
      82    H39     22.443507   24.447104   18.779510 H          1 MOL1         0.0794
      83    O20     21.528071   25.769614   20.104621 O.3        1 MOL1        -0.5486
      84    H40     22.360267   25.879883   20.616121 H          1 MOL1         0.3769
      85    C25     25.292362   17.709624   20.959560 C.3        1 MOL1         0.2972
      86    H41     25.926984   16.839129   20.748604 H          1 MOL1         0.0751
      87    O21     23.905416   17.334595   21.114979 O.3        1 MOL1        -0.3740
      88    C26     25.778839   18.475333   22.216929 C.3        1 MOL1         0.1003
      89    H42     26.770203   18.883457   21.980259 H          1 MOL1         0.0783
      90    O22     25.897391   17.620050   23.362388 O.3        1 MOL1        -0.5519
      91    H43     24.984045   17.307599   23.583442 H          1 MOL1         0.3769
      92    C27     24.834434   19.664602   22.514532 C.3        1 MOL1         0.1053
      93    H44     23.859301   19.255469   22.814249 H          1 MOL1         0.0783
      94    O23     25.381874   20.441169   23.585547 O.3        1 MOL1        -0.5519
      95    H45     25.734743   19.781218   24.224960 H          1 MOL1         0.3769
      96    C28     24.617426   20.556481   21.259305 C.3        1 MOL1         0.1018
      97    H46     25.470954   21.236865   21.137486 H          1 MOL1         0.0783
      98    C29     24.430398   19.755342   19.942067 C.3        1 MOL1         0.1043
      99    H47     23.405406   19.369367   19.917717 H          1 MOL1         0.0783
     100    O24     25.370206   18.654551   19.872780 O.3        1 MOL1        -0.3740
     101    C30     24.643075   20.645807   18.699392 C.3        1 MOL1         0.0138
     102    H48     25.688022   20.982328   18.669155 H          1 MOL1         0.0794
     103    H49     24.007774   21.537862   18.782620 H          1 MOL1         0.0794
     104    O25     24.314692   19.924665   17.510628 O.3        1 MOL1        -0.5486
     105    H50     24.843650   19.097110   17.537977 H          1 MOL1         0.3769
     106    C31     21.315881   14.215697   21.926641 C.3        1 MOL1         0.2972
     107    H51     20.851822   13.259583   22.199243 H          1 MOL1         0.0751
     108    O26     20.370886   15.106080   21.297357 O.3        1 MOL1        -0.3740
     109    C32     21.893534   14.911209   23.185247 C.3        1 MOL1         0.1003
     110    H52     22.642253   14.232750   23.614586 H          1 MOL1         0.0783
     111    O27     20.872368   15.166451   24.163536 O.3        1 MOL1        -0.5519
     112    H53     20.123842   14.553086   23.966977 H          1 MOL1         0.3769
     113    C33     22.599533   16.233006   22.806064 C.3        1 MOL1         0.1053
     114    H54     21.836034   16.933823   22.449685 H          1 MOL1         0.0783
     115    O28     23.230930   16.765908   23.972670 O.3        1 MOL1        -0.5519
     116    H55     22.550054   16.683928   24.678459 H          1 MOL1         0.3769
     117    C34     23.628995   16.032091   21.664406 C.3        1 MOL1         0.1018
     118    H56     24.529955   15.556458   22.074245 H          1 MOL1         0.0783
     119    C35     23.057585   15.178608   20.497437 C.3        1 MOL1         0.1043
     120    H57     22.324661   15.788308   19.952819 H          1 MOL1         0.0783
     121    O29     22.408871   13.989652   21.011364 O.3        1 MOL1        -0.3740
     122    C36     24.135681   14.730727   19.485646 C.3        1 MOL1         0.0138
     123    H58     24.563846   15.619226   19.002695 H          1 MOL1         0.0794
     124    H59     23.656500   14.130824   18.700385 H          1 MOL1         0.0794
     125    O30     25.166243   13.975302   20.128746 O.3        1 MOL1        -0.5486
     126    H60     24.720307   13.213635   20.561895 H          1 MOL1         0.3769
     127    N1      20.051655   20.722039   16.568601 N.4        1 MOL1        -0.4857
     128    H1      19.231926   20.963884   17.161004 H          1 MOL1         0.3650
     129    H2      19.721850   20.869429   15.603097 H          1 MOL1         0.3650
     130    C1      20.417113   19.256933   16.761887 C.3        1 MOL1         0.0209
     131    H3      21.199914   19.012674   16.039570 H          1 MOL1         0.0967
     132    H4      19.532112   18.664136   16.514778 H          1 MOL1         0.0967
     133    C2      20.895436   18.874883   18.178383 C.3        1 MOL1        -0.1378
     134    H5      21.070397   17.791686   18.207177 H          1 MOL1         0.0993
     135    H6      21.859940   19.351916   18.373679 H          1 MOL1         0.0993
     136    C3      19.883831   19.270735   19.274678 C.3        1 MOL1        -0.1338
     137    H7      18.901705   18.841006   19.030948 H          1 MOL1         0.0993
     138    H8      19.766351   20.361527   19.283301 H          1 MOL1         0.0993
     139    C4      20.323671   18.804723   20.679419 C.3        1 MOL1        -0.1338
     140    H9      20.525927   17.726433   20.662325 H          1 MOL1         0.0993
     141    H10     21.262616   19.299755   20.962506 H          1 MOL1         0.0993
     142    C5      19.233880   19.110665   21.728324 C.3        1 MOL1        -0.1313
     143    H11     19.044144   20.191051   21.764839 H          1 MOL1         0.0993
     144    H12     18.293892   18.639191   21.416625 H          1 MOL1         0.0993
     145    C6      19.616936   18.613962   23.137318 C.3        1 MOL1        -0.2328
     146    H13     19.705286   17.520700   23.158850 H          1 MOL1         0.1004
     147    H14     18.851183   18.900636   23.869577 H          1 MOL1         0.1004
     148    H15     20.573022   19.043790   23.464730 H          1 MOL1         0.1004
     149    C7      21.236125   21.635992   16.862893 C.3        1 MOL1        -0.0781
     150    H16     22.070940   21.360525   16.214241 H          1 MOL1         0.0978
     151    H17     20.944276   22.671449   16.675038 H          1 MOL1         0.0978
     152    H18     21.529487   21.517653   17.907584 H          1 MOL1         0.0978
@<TRIPOS>BOND
    1     1     2    1
    2     1     3    1
    3     1     4    1
    4     4     5    1
    5     4     6    1
    6     6     7    1
    7     4     8    1
    8     8     9    1
    9     8    10    1
   10    10    11    1
   11     8    12    1
   12    12    13    1
   13    12    14    1
   14    14    15    1
   15     1    16    1
   16    14    16    1
   17    14    17    1
   18    17    18    1
   19    17    19    1
   20    17    20    1
   21    20    21    1
   22    22    23    1
   23    22    24    1
   24    22    25    1
   25    25    26    1
   26    25    27    1
   27    27    28    1
   28    25    29    1
   29    29    30    1
   30    29    31    1
   31    31    32    1
   32     3    33    1
   33    29    33    1
   34    33    34    1
   35    33    35    1
   36    35    36    1
   37    22    37    1
   38    35    37    1
   39    35    38    1
   40    38    39    1
   41    38    40    1
   42    38    41    1
   43    41    42    1
   44    43    44    1
   45    43    45    1
   46    43    46    1
   47    46    47    1
   48    46    48    1
   49    48    49    1
   50    46    50    1
   51    50    51    1
   52    50    52    1
   53    52    53    1
   54    24    54    1
   55    50    54    1
   56    54    55    1
   57    54    56    1
   58    56    57    1
   59    43    58    1
   60    56    58    1
   61    56    59    1
   62    59    60    1
   63    59    61    1
   64    59    62    1
   65    62    63    1
   66    64    65    1
   67    64    66    1
   68    64    67    1
   69    67    68    1
   70    67    69    1
   71    69    70    1
   72    67    71    1
   73    71    72    1
   74    71    73    1
   75    73    74    1
   76    45    75    1
   77    71    75    1
   78    75    76    1
   79    75    77    1
   80    77    78    1
   81    64    79    1
   82    77    79    1
   83    77    80    1
   84    80    81    1
   85    80    82    1
   86    80    83    1
   87    83    84    1
   88    85    86    1
   89    85    87    1
   90    85    88    1
   91    88    89    1
   92    88    90    1
   93    90    91    1
   94    88    92    1
   95    92    93    1
   96    92    94    1
   97    94    95    1
   98    66    96    1
   99    92    96    1
  100    96    97    1
  101    96    98    1
  102    98    99    1
  103    85   100    1
  104    98   100    1
  105    98   101    1
  106   101   102    1
  107   101   103    1
  108   101   104    1
  109   104   105    1
  110   106   107    1
  111    12   108    1
  112   106   108    1
  113   106   109    1
  114   109   110    1
  115   109   111    1
  116   111   112    1
  117   109   113    1
  118   113   114    1
  119   113   115    1
  120   115   116    1
  121    87   117    1
  122   113   117    1
  123   117   118    1
  124   117   119    1
  125   119   120    1
  126   106   121    1
  127   119   121    1
  128   119   122    1
  129   122   123    1
  130   122   124    1
  131   122   125    1
  132   125   126    1
  133   127   128    1
  134   127   129    1
  135   127   130    1
  136   130   131    1
  137   130   132    1
  138   130   133    1
  139   133   134    1
  140   133   135    1
  141   133   136    1
  142   136   137    1
  143   136   138    1
  144   136   139    1
  145   139   140    1
  146   139   141    1
  147   139   142    1
  148   142   143    1
  149   142   144    1
  150   142   145    1
  151   145   146    1
  152   145   147    1
  153   145   148    1
  154   127   149    1
  155   149   150    1
  156   149   151    1
  157   149   152    1
@<TRIPOS>SUBSTRUCTURE
       1 MOL1            1 RESIDUE      1      MOL     
       2 MOL1          152 RESIDUE      1      MOL     
@<SCITEGIC>MOL_PROPERTY
VM2 Rank
SciTegic.value.IntegerValue
2

@<SCITEGIC>MOL_PROPERTY
Conf_Id
SciTegic.value.IntegerValue
19792

@<SCITEGIC>MOL_PROPERTY
Probability
SciTegic.value.DoubleValue
1.80

@<SCITEGIC>MOL_PROPERTY
Sum Probability
SciTegic.value.DoubleValue
4.16

@<SCITEGIC>MOL_PROPERTY
Delta G
SciTegic.value.DoubleValue
0.160

@<SCITEGIC>MOL_PROPERTY
G
SciTegic.value.DoubleValue
594.929

@<SCITEGIC>MOL_PROPERTY
E
SciTegic.value.DoubleValue
390.687

@<SCITEGIC>MOL_PROPERTY
-TS
SciTegic.value.DoubleValue
204.241

@<SCITEGIC>MOL_PROPERTY
U+W
SciTegic.value.DoubleValue
256.551

@<SCITEGIC>MOL_PROPERTY
U
SciTegic.value.DoubleValue
321.704

@<SCITEGIC>MOL_PROPERTY
W
SciTegic.value.DoubleValue
-65.154

@<SCITEGIC>MOL_PROPERTY
W(PB)
SciTegic.value.DoubleValue
-71.101

@<SCITEGIC>MOL_PROPERTY
W(SA)
SciTegic.value.DoubleValue
5.947

@<SCITEGIC>MOL_PROPERTY
Valence
SciTegic.value.DoubleValue
145.803

@<SCITEGIC>MOL_PROPERTY
Coulomb
SciTegic.value.DoubleValue
202.866

@<SCITEGIC>MOL_PROPERTY
VdW
SciTegic.value.DoubleValue
-26.965

@<SCITEGIC>MOL_PROPERTY
VdW6
SciTegic.value.DoubleValue
-182.250

@<SCITEGIC>MOL_PROPERTY
VdW12
SciTegic.value.DoubleValue
155.285

@<SCITEGIC>MOL_PROPERTY
Bond
SciTegic.value.DoubleValue
4.426

@<SCITEGIC>MOL_PROPERTY
Angle
SciTegic.value.DoubleValue
10.299

@<SCITEGIC>MOL_PROPERTY
Pdih
SciTegic.value.DoubleValue
131.078

@<SCITEGIC>MOL_PROPERTY
Idih
SciTegic.value.DoubleValue
0.000

@<SCITEGIC>MOL_PROPERTY
Tether
SciTegic.value.DoubleValue
0.000

@<TRIPOS>MOLECULE
CD_guest-s12_vm2_rndm.mol2 : vm2 host+ligand conformer 3
         152         157           2
SMALL
USER_CHARGES
 
@<TRIPOS>ATOM
       1    C1      16.192712   14.992524   20.643381 C.3        1 MOL1         0.2972
       2    H1      15.137320   14.878952   20.363571 H          1 MOL1         0.0751
       3    O1      16.541483   16.377394   20.858199 O.3        1 MOL1        -0.3740
       4    C2      16.538163   14.157888   21.904871 C.3        1 MOL1         0.1003
       5    H2      16.398789   13.101888   21.638910 H          1 MOL1         0.0783
       6    O2      15.680913   14.469380   23.012194 O.3        1 MOL1        -0.5519
       7    H3      15.855179   15.413820   23.254166 H          1 MOL1         0.3769
       8    C3      18.023846   14.358466   22.290331 C.3        1 MOL1         0.1053
       9    H4      18.150573   15.399303   22.620053 H          1 MOL1         0.0783
      10    O3      18.359473   13.469111   23.360030 O.3        1 MOL1        -0.5519
      11    H5      17.586407   13.497011   23.968426 H          1 MOL1         0.3769
      12    C4      18.967643   14.117427   21.080497 C.3        1 MOL1         0.1018
      13    H6      19.097249   13.038498   20.921017 H          1 MOL1         0.0783
      14    C5      18.455921   14.754818   19.760476 C.3        1 MOL1         0.1043
      15    H7      18.631332   15.835813   19.805136 H          1 MOL1         0.0783
      16    O4      17.041233   14.492570   19.589908 O.3        1 MOL1        -0.3740
      17    C6      19.193197   14.195263   18.526194 C.3        1 MOL1         0.0138
      18    H8      18.937040   13.134844   18.399496 H          1 MOL1         0.0794
      19    H9      20.276941   14.259202   18.691954 H          1 MOL1         0.0794
      20    O5      18.834531   14.942776   17.362341 O.3        1 MOL1        -0.5486
      21    H10     17.853034   14.924613   17.316994 H          1 MOL1         0.3769
      22    C7      15.012530   20.149468   21.630229 C.3        1 MOL1         0.2972
      23    H11     14.372140   21.004144   21.880635 H          1 MOL1         0.0751
      24    O6      16.271403   20.576192   21.066943 O.3        1 MOL1        -0.3740
      25    C8      15.285006   19.286363   22.891899 C.3        1 MOL1         0.1003
      26    H12     14.309563   18.950680   23.267501 H          1 MOL1         0.0783
      27    O7      15.952646   20.033458   23.921268 O.3        1 MOL1        -0.5519
      28    H13     15.715879   20.982124   23.787559 H          1 MOL1         0.3769
      29    C9      16.120663   18.035528   22.538528 C.3        1 MOL1         0.1053
      30    H14     17.120521   18.368865   22.239212 H          1 MOL1         0.0783
      31    O8      16.220945   17.206509   23.699288 O.3        1 MOL1        -0.5519
      32    H15     16.435518   17.832799   24.427464 H          1 MOL1         0.3769
      33    C10     15.508447   17.249198   21.353268 C.3        1 MOL1         0.1018
      34    H16     14.631607   16.691575   21.708438 H          1 MOL1         0.0783
      35    C11     15.109548   18.180039   20.174174 C.3        1 MOL1         0.1043
      36    H17     16.028273   18.540469   19.692610 H          1 MOL1         0.0783
      37    O9      14.345787   19.309288   20.663890 O.3        1 MOL1        -0.3740
      38    C12     14.263721   17.468538   19.094694 C.3        1 MOL1         0.0138
      39    H18     14.868245   16.677857   18.630665 H          1 MOL1         0.0794
      40    H19     14.013171   18.192408   18.307697 H          1 MOL1         0.0794
      41    O10     13.071321   16.911492   19.655448 O.3        1 MOL1        -0.5486
      42    H20     12.588646   17.658545   20.074416 H          1 MOL1         0.3769
      43    C13     18.525685   24.094872   21.006793 C.3        1 MOL1         0.2972
      44    H21     18.904351   25.110018   20.829798 H          1 MOL1         0.0751
      45    O11     19.544554   23.223603   21.527328 O.3        1 MOL1        -0.3740
      46    C14     17.365614   24.106092   22.030420 C.3        1 MOL1         0.1003
      47    H22     16.574242   24.747680   21.621401 H          1 MOL1         0.0783
      48    O12     17.803443   24.638142   23.292134 O.3        1 MOL1        -0.5519
      49    H23     18.651130   24.183028   23.526250 H          1 MOL1         0.3769
      50    C15     16.778745   22.684733   22.226518 C.3        1 MOL1         0.1053
      51    H24     17.535336   22.075791   22.740703 H          1 MOL1         0.0783
      52    O13     15.610635   22.800708   23.046725 O.3        1 MOL1        -0.5519
      53    H25     15.846211   23.472494   23.727195 H          1 MOL1         0.3769
      54    C16     16.452810   21.995932   20.865701 C.3        1 MOL1         0.1018
      55    H26     15.555448   22.449211   20.424122 H          1 MOL1         0.0783
      56    C17     17.629590   22.133760   19.863180 C.3        1 MOL1         0.1043
      57    H27     18.465289   21.519847   20.217206 H          1 MOL1         0.0783
      58    O14     18.028975   23.522254   19.780089 O.3        1 MOL1        -0.3740
      59    C18     17.276270   21.660488   18.439037 C.3        1 MOL1         0.0138
      60    H28     16.494222   22.308505   18.021341 H          1 MOL1         0.0794
      61    H29     16.876821   20.638728   18.483622 H          1 MOL1         0.0794
      62    O15     18.450864   21.692199   17.623266 O.3        1 MOL1        -0.5486
      63    H30     18.756970   22.626112   17.640606 H          1 MOL1         0.3769
      64    C19     23.558998   22.839295   22.099750 C.3        1 MOL1         0.2972
      65    H31     24.640105   22.920254   22.271938 H          1 MOL1         0.0751
      66    O16     23.175900   21.502165   21.714413 O.3        1 MOL1        -0.3740
      67    C20     22.787586   23.232241   23.383624 C.3        1 MOL1         0.1003
      68    H32     23.019000   24.283428   23.599440 H          1 MOL1         0.0783
      69    O17     23.191359   22.419687   24.497216 O.3        1 MOL1        -0.5519
      70    H33     23.735645   21.677612   24.134167 H          1 MOL1         0.3769
      71    C21     21.264343   23.112403   23.157451 C.3        1 MOL1         0.1053
      72    H34     21.033998   22.045679   23.064000 H          1 MOL1         0.0783
      73    O18     20.559184   23.649322   24.281294 O.3        1 MOL1        -0.5519
      74    H35     21.011219   23.269772   25.067629 H          1 MOL1         0.3769
      75    C22     20.802594   23.831341   21.864248 C.3        1 MOL1         0.1018
      76    H36     20.696746   24.902341   22.082910 H          1 MOL1         0.0783
      77    C23     21.752566   23.619111   20.648998 C.3        1 MOL1         0.1043
      78    H37     21.571756   22.611551   20.252731 H          1 MOL1         0.0783
      79    O19     23.139178   23.739233   21.054894 O.3        1 MOL1        -0.3740
      80    C24     21.517673   24.617432   19.493371 C.3        1 MOL1         0.0138
      81    H38     20.518358   24.452291   19.070766 H          1 MOL1         0.0794
      82    H39     22.244313   24.411212   18.696054 H          1 MOL1         0.0794
      83    O20     21.646051   25.968934   19.943653 O.3        1 MOL1        -0.5486
      84    H40     22.549803   26.049355   20.322166 H          1 MOL1         0.3769
      85    C25     24.809515   17.787846   20.810705 C.3        1 MOL1         0.2972
      86    H41     25.448399   16.962898   20.470028 H          1 MOL1         0.0751
      87    O21     23.478847   17.326501   21.121653 O.3        1 MOL1        -0.3740
      88    C26     25.427360   18.498531   22.047181 C.3        1 MOL1         0.1003
      89    H42     26.399133   18.900871   21.732695 H          1 MOL1         0.0783
      90    O22     25.635956   17.596876   23.144349 O.3        1 MOL1        -0.5519
      91    H43     24.743545   17.270199   23.423695 H          1 MOL1         0.3769
      92    C27     24.542931   19.688131   22.489659 C.3        1 MOL1         0.1053
      93    H44     23.586358   19.285995   22.851473 H          1 MOL1         0.0783
      94    O23     25.196402   20.405350   23.541783 O.3        1 MOL1        -0.5519
      95    H45     25.566516   19.711915   24.133413 H          1 MOL1         0.3769
      96    C28     24.249942   20.637784   21.300846 C.3        1 MOL1         0.1018
      97    H46     25.156946   21.203566   21.048634 H          1 MOL1         0.0783
      98    C29     23.776000   19.874919   20.035833 C.3        1 MOL1         0.1043
      99    H47     22.761310   19.499772   20.209927 H          1 MOL1         0.0783
     100    O24     24.687029   18.778511   19.766809 O.3        1 MOL1        -0.3740
     101    C30     23.751103   20.777474   18.783500 C.3        1 MOL1         0.0138
     102    H48     24.774571   21.098280   18.547564 H          1 MOL1         0.0794
     103    H49     23.163408   21.678567   18.995398 H          1 MOL1         0.0794
     104    O25     23.179166   20.073323   17.678751 O.3        1 MOL1        -0.5486
     105    H50     23.736298   19.272201   17.558569 H          1 MOL1         0.3769
     106    C31     21.248360   13.944643   21.957179 C.3        1 MOL1         0.2972
     107    H51     20.871102   12.949664   22.226750 H          1 MOL1         0.0751
     108    O26     20.216875   14.768802   21.378740 O.3        1 MOL1        -0.3740
     109    C32     21.824088   14.658475   23.207230 C.3        1 MOL1         0.1003
     110    H52     22.657143   14.046362   23.576772 H          1 MOL1         0.0783
     111    O27     20.839417   14.789329   24.245253 O.3        1 MOL1        -0.5519
     112    H53     20.014250   14.347602   23.927164 H          1 MOL1         0.3769
     113    C33     22.379557   16.050846   22.834055 C.3        1 MOL1         0.1053
     114    H54     21.525693   16.677948   22.554644 H          1 MOL1         0.0783
     115    O28     23.035093   16.614769   23.973680 O.3        1 MOL1        -0.5519
     116    H55     22.418882   16.444679   24.721563 H          1 MOL1         0.3769
     117    C34     23.354806   15.982412   21.629990 C.3        1 MOL1         0.1018
     118    H56     24.316716   15.585470   21.980379 H          1 MOL1         0.0783
     119    C35     22.813688   15.098339   20.469812 C.3        1 MOL1         0.1043
     120    H57     21.997910   15.641813   19.975562 H          1 MOL1         0.0783
     121    O29     22.314693   13.839343   20.989896 O.3        1 MOL1        -0.3740
     122    C36     23.872841   14.777418   19.392006 C.3        1 MOL1         0.0138
     123    H58     24.170797   15.709590   18.894081 H          1 MOL1         0.0794
     124    H59     23.416439   14.132542   18.629089 H          1 MOL1         0.0794
     125    O30     25.016581   14.136741   19.963933 O.3        1 MOL1        -0.5486
     126    H60     24.685470   13.324445   20.407778 H          1 MOL1         0.3769
     127    N1      20.437294   19.747876   16.605411 N.4        1 MOL1        -0.4857
     128    H1      21.404467   19.978050   16.909915 H          1 MOL1         0.3650
     129    H2      19.814278   20.424008   17.089707 H          1 MOL1         0.3650
     130    C1      20.085966   18.333767   17.022953 C.3        1 MOL1         0.0209
     131    H3      20.624137   17.648601   16.363285 H          1 MOL1         0.0967
     132    H4      19.014576   18.191937   16.860983 H          1 MOL1         0.0967
     133    C2      20.444603   18.007309   18.484805 C.3        1 MOL1        -0.1378
     134    H5      20.153000   16.972479   18.688988 H          1 MOL1         0.0993
     135    H6      21.534666   18.046250   18.607858 H          1 MOL1         0.0993
     136    C3      19.770563   18.956636   19.502204 C.3        1 MOL1        -0.1338
     137    H7      18.686448   18.993344   19.327327 H          1 MOL1         0.0993
     138    H8      20.155353   19.974370   19.351400 H          1 MOL1         0.0993
     139    C4      20.043239   18.515932   20.956361 C.3        1 MOL1        -0.1338
     140    H9      19.466376   17.610028   21.188636 H          1 MOL1         0.0993
     141    H10     21.100293   18.252716   21.058884 H          1 MOL1         0.0993
     142    C5      19.717170   19.627931   21.972619 C.3        1 MOL1        -0.1313
     143    H11     20.298473   20.523222   21.720818 H          1 MOL1         0.0993
     144    H12     18.660786   19.909529   21.900311 H          1 MOL1         0.0993
     145    C6      20.033857   19.196621   23.419344 C.3        1 MOL1        -0.2328
     146    H13     21.103046   18.979599   23.542048 H          1 MOL1         0.1004
     147    H14     19.466790   18.298101   23.696920 H          1 MOL1         0.1004
     148    H15     19.768606   19.993399   24.126422 H          1 MOL1         0.1004
     149    C7      20.295569   19.896124   15.098528 C.3        1 MOL1        -0.0781
     150    H16     19.263976   19.678577   14.813939 H          1 MOL1         0.0978
     151    H17     20.548377   20.920390   14.816428 H          1 MOL1         0.0978
     152    H18     20.973931   19.197580   14.604332 H          1 MOL1         0.0978
@<TRIPOS>BOND
    1     1     2    1
    2     1     3    1
    3     1     4    1
    4     4     5    1
    5     4     6    1
    6     6     7    1
    7     4     8    1
    8     8     9    1
    9     8    10    1
   10    10    11    1
   11     8    12    1
   12    12    13    1
   13    12    14    1
   14    14    15    1
   15     1    16    1
   16    14    16    1
   17    14    17    1
   18    17    18    1
   19    17    19    1
   20    17    20    1
   21    20    21    1
   22    22    23    1
   23    22    24    1
   24    22    25    1
   25    25    26    1
   26    25    27    1
   27    27    28    1
   28    25    29    1
   29    29    30    1
   30    29    31    1
   31    31    32    1
   32     3    33    1
   33    29    33    1
   34    33    34    1
   35    33    35    1
   36    35    36    1
   37    22    37    1
   38    35    37    1
   39    35    38    1
   40    38    39    1
   41    38    40    1
   42    38    41    1
   43    41    42    1
   44    43    44    1
   45    43    45    1
   46    43    46    1
   47    46    47    1
   48    46    48    1
   49    48    49    1
   50    46    50    1
   51    50    51    1
   52    50    52    1
   53    52    53    1
   54    24    54    1
   55    50    54    1
   56    54    55    1
   57    54    56    1
   58    56    57    1
   59    43    58    1
   60    56    58    1
   61    56    59    1
   62    59    60    1
   63    59    61    1
   64    59    62    1
   65    62    63    1
   66    64    65    1
   67    64    66    1
   68    64    67    1
   69    67    68    1
   70    67    69    1
   71    69    70    1
   72    67    71    1
   73    71    72    1
   74    71    73    1
   75    73    74    1
   76    45    75    1
   77    71    75    1
   78    75    76    1
   79    75    77    1
   80    77    78    1
   81    64    79    1
   82    77    79    1
   83    77    80    1
   84    80    81    1
   85    80    82    1
   86    80    83    1
   87    83    84    1
   88    85    86    1
   89    85    87    1
   90    85    88    1
   91    88    89    1
   92    88    90    1
   93    90    91    1
   94    88    92    1
   95    92    93    1
   96    92    94    1
   97    94    95    1
   98    66    96    1
   99    92    96    1
  100    96    97    1
  101    96    98    1
  102    98    99    1
  103    85   100    1
  104    98   100    1
  105    98   101    1
  106   101   102    1
  107   101   103    1
  108   101   104    1
  109   104   105    1
  110   106   107    1
  111    12   108    1
  112   106   108    1
  113   106   109    1
  114   109   110    1
  115   109   111    1
  116   111   112    1
  117   109   113    1
  118   113   114    1
  119   113   115    1
  120   115   116    1
  121    87   117    1
  122   113   117    1
  123   117   118    1
  124   117   119    1
  125   119   120    1
  126   106   121    1
  127   119   121    1
  128   119   122    1
  129   122   123    1
  130   122   124    1
  131   122   125    1
  132   125   126    1
  133   127   128    1
  134   127   129    1
  135   127   130    1
  136   130   131    1
  137   130   132    1
  138   130   133    1
  139   133   134    1
  140   133   135    1
  141   133   136    1
  142   136   137    1
  143   136   138    1
  144   136   139    1
  145   139   140    1
  146   139   141    1
  147   139   142    1
  148   142   143    1
  149   142   144    1
  150   142   145    1
  151   145   146    1
  152   145   147    1
  153   145   148    1
  154   127   149    1
  155   149   150    1
  156   149   151    1
  157   149   152    1
@<TRIPOS>SUBSTRUCTURE
       1 MOL1            1 RESIDUE      1      MOL     
       2 MOL1          152 RESIDUE      1      MOL     
@<SCITEGIC>MOL_PROPERTY
VM2 Rank
SciTegic.value.IntegerValue
3

@<SCITEGIC>MOL_PROPERTY
Conf_Id
SciTegic.value.IntegerValue
17383

@<SCITEGIC>MOL_PROPERTY
Probability
SciTegic.value.DoubleValue
1.61

@<SCITEGIC>MOL_PROPERTY
Sum Probability
SciTegic.value.DoubleValue
5.76

@<SCITEGIC>MOL_PROPERTY
Delta G
SciTegic.value.DoubleValue
0.227

@<SCITEGIC>MOL_PROPERTY
G
SciTegic.value.DoubleValue
594.995

@<SCITEGIC>MOL_PROPERTY
E
SciTegic.value.DoubleValue
390.686

@<SCITEGIC>MOL_PROPERTY
-TS
SciTegic.value.DoubleValue
204.310

@<SCITEGIC>MOL_PROPERTY
U+W
SciTegic.value.DoubleValue
256.549

@<SCITEGIC>MOL_PROPERTY
U
SciTegic.value.DoubleValue
317.002

@<SCITEGIC>MOL_PROPERTY
W
SciTegic.value.DoubleValue
-60.453

@<SCITEGIC>MOL_PROPERTY
W(PB)
SciTegic.value.DoubleValue
-66.523

@<SCITEGIC>MOL_PROPERTY
W(SA)
SciTegic.value.DoubleValue
6.070

@<SCITEGIC>MOL_PROPERTY
Valence
SciTegic.value.DoubleValue
146.619

@<SCITEGIC>MOL_PROPERTY
Coulomb
SciTegic.value.DoubleValue
196.072

@<SCITEGIC>MOL_PROPERTY
VdW
SciTegic.value.DoubleValue
-25.688

@<SCITEGIC>MOL_PROPERTY
VdW6
SciTegic.value.DoubleValue
-180.546

@<SCITEGIC>MOL_PROPERTY
VdW12
SciTegic.value.DoubleValue
154.858

@<SCITEGIC>MOL_PROPERTY
Bond
SciTegic.value.DoubleValue
4.443

@<SCITEGIC>MOL_PROPERTY
Angle
SciTegic.value.DoubleValue
10.113

@<SCITEGIC>MOL_PROPERTY
Pdih
SciTegic.value.DoubleValue
132.063

@<SCITEGIC>MOL_PROPERTY
Idih
SciTegic.value.DoubleValue
0.000

@<SCITEGIC>MOL_PROPERTY
Tether
SciTegic.value.DoubleValue
0.000

@<TRIPOS>MOLECULE
CD_guest-s12_vm2_rndm.mol2 : vm2 host+ligand conformer 4
         152         157           2
SMALL
USER_CHARGES
 
@<TRIPOS>ATOM
       1    C1      16.346762   15.139543   20.956075 C.3        1 MOL1         0.2972
       2    H1      15.276743   15.019719   20.742521 H          1 MOL1         0.0751
       3    O1      16.707048   16.530849   21.080640 O.3        1 MOL1        -0.3740
       4    C2      16.749892   14.370123   22.244417 C.3        1 MOL1         0.1003
       5    H2      16.541088   13.307705   22.063420 H          1 MOL1         0.0783
       6    O2      15.999133   14.799902   23.389723 O.3        1 MOL1        -0.5519
       7    H3      16.226727   15.751670   23.543342 H          1 MOL1         0.3769
       8    C3      18.266334   14.518190   22.509312 C.3        1 MOL1         0.1053
       9    H4      18.466565   15.570328   22.750746 H          1 MOL1         0.0783
      10    O3      18.648418   13.689813   23.612045 O.3        1 MOL1        -0.5519
      11    H5      17.952824   13.829192   24.292694 H          1 MOL1         0.3769
      12    C4      19.096867   14.138557   21.258382 C.3        1 MOL1         0.1018
      13    H6      19.081909   13.046657   21.143072 H          1 MOL1         0.0783
      14    C5      18.559644   14.804892   19.962692 C.3        1 MOL1         0.1043
      15    H7      18.786833   15.876949   20.001295 H          1 MOL1         0.0783
      16    O4      17.128406   14.592467   19.874052 O.3        1 MOL1        -0.3740
      17    C6      19.187124   14.226082   18.678320 C.3        1 MOL1         0.0138
      18    H8      18.880813   13.177802   18.563054 H          1 MOL1         0.0794
      19    H9      20.278799   14.248326   18.761279 H          1 MOL1         0.0794
      20    O5      18.779591   14.998917   17.548288 O.3        1 MOL1        -0.5486
      21    H10     17.798174   15.032770   17.579870 H          1 MOL1         0.3769
      22    C7      15.077168   20.294482   21.706221 C.3        1 MOL1         0.2972
      23    H11     14.428403   21.142992   21.957052 H          1 MOL1         0.0751
      24    O6      16.247815   20.715866   20.976369 O.3        1 MOL1        -0.3740
      25    C8      15.522791   19.550346   22.993822 C.3        1 MOL1         0.1003
      26    H12     14.611728   19.198929   23.495516 H          1 MOL1         0.0783
      27    O7      16.251800   20.407471   23.887182 O.3        1 MOL1        -0.5519
      28    H13     15.972506   21.333952   23.693266 H          1 MOL1         0.3769
      29    C9      16.386371   18.319231   22.641748 C.3        1 MOL1         0.1053
      30    H14     17.323386   18.682877   22.204082 H          1 MOL1         0.0783
      31    O8      16.661010   17.585002   23.838640 O.3        1 MOL1        -0.5519
      32    H15     16.904700   18.274663   24.496232 H          1 MOL1         0.3769
      33    C10     15.692534   17.413552   21.596631 C.3        1 MOL1         0.1018
      34    H16     14.880151   16.864119   22.090501 H          1 MOL1         0.0783
      35    C11     15.128168   18.224629   20.396668 C.3        1 MOL1         0.1043
      36    H17     15.972940   18.586238   19.795143 H          1 MOL1         0.0783
      37    O9      14.357673   19.351856   20.882645 O.3        1 MOL1        -0.3740
      38    C12     14.214493   17.395229   19.466796 C.3        1 MOL1         0.0138
      39    H18     14.811575   16.607720   18.988226 H          1 MOL1         0.0794
      40    H19     13.837067   18.048038   18.668337 H          1 MOL1         0.0794
      41    O10     13.125333   16.816272   20.191392 O.3        1 MOL1        -0.5486
      42    H20     12.642767   17.564255   20.608702 H          1 MOL1         0.3769
      43    C13     18.475603   24.129267   20.410818 C.3        1 MOL1         0.2972
      44    H21     18.917261   25.096861   20.139626 H          1 MOL1         0.0751
      45    O11     19.481178   23.187933   20.843886 O.3        1 MOL1        -0.3740
      46    C14     17.388273   24.289478   21.504326 C.3        1 MOL1         0.1003
      47    H22     16.574981   24.879476   21.061738 H          1 MOL1         0.0783
      48    O12     17.875038   24.981430   22.663171 O.3        1 MOL1        -0.5519
      49    H23     18.554576   24.396064   23.082873 H          1 MOL1         0.3769
      50    C15     16.813140   22.906476   21.892368 C.3        1 MOL1         0.1053
      51    H24     17.614005   22.328140   22.373683 H          1 MOL1         0.0783
      52    O13     15.735973   23.103897   22.815544 O.3        1 MOL1        -0.5519
      53    H25     16.030566   23.842842   23.395679 H          1 MOL1         0.3769
      54    C16     16.334448   22.115715   20.638670 C.3        1 MOL1         0.1018
      55    H26     15.362444   22.504718   20.307222 H          1 MOL1         0.0783
      56    C17     17.334190   22.192596   19.450641 C.3        1 MOL1         0.1043
      57    H27     18.179748   21.527641   19.662912 H          1 MOL1         0.0783
      58    O14     17.806235   23.551870   19.271153 O.3        1 MOL1        -0.3740
      59    C18     16.693983   21.736594   18.123493 C.3        1 MOL1         0.0138
      60    H28     15.886468   22.429769   17.852364 H          1 MOL1         0.0794
      61    H29     16.249532   20.741507   18.259687 H          1 MOL1         0.0794
      62    O15     17.684579   21.691312   17.094435 O.3        1 MOL1        -0.5486
      63    H30     18.111476   22.576610   17.088868 H          1 MOL1         0.3769
      64    C19     23.254253   22.676429   22.373797 C.3        1 MOL1         0.2972
      65    H31     24.255150   22.763388   22.815480 H          1 MOL1         0.0751
      66    O16     23.046548   21.380153   21.775174 O.3        1 MOL1        -0.3740
      67    C20     22.171075   22.908101   23.456034 C.3        1 MOL1         0.1003
      68    H32     22.318576   23.922101   23.850066 H          1 MOL1         0.0783
      69    O17     22.288949   21.960945   24.530311 O.3        1 MOL1        -0.5519
      70    H33     23.185832   21.552624   24.460344 H          1 MOL1         0.3769
      71    C21     20.755467   22.828304   22.842585 C.3        1 MOL1         0.1053
      72    H34     20.576739   21.787486   22.552526 H          1 MOL1         0.0783
      73    O18     19.802268   23.212017   23.836558 O.3        1 MOL1        -0.5519
      74    H35     20.077329   22.722560   24.644614 H          1 MOL1         0.3769
      75    C22     20.609434   23.708327   21.572849 C.3        1 MOL1         0.1018
      76    H36     20.461932   24.753203   21.876376 H          1 MOL1         0.0783
      77    C23     21.828498   23.600317   20.613642 C.3        1 MOL1         0.1043
      78    H37     21.772140   22.632398   20.099198 H          1 MOL1         0.0783
      79    O19     23.070543   23.680547   21.354631 O.3        1 MOL1        -0.3740
      80    C24     21.851231   24.699670   19.528698 C.3        1 MOL1         0.0138
      81    H38     20.969766   24.584341   18.884085 H          1 MOL1         0.0794
      82    H39     22.738412   24.555201   18.897654 H          1 MOL1         0.0794
      83    O20     21.865830   26.004471   20.114594 O.3        1 MOL1        -0.5486
      84    H40     22.656381   26.035866   20.698297 H          1 MOL1         0.3769
      85    C25     25.071418   17.736400   21.536091 C.3        1 MOL1         0.2972
      86    H41     25.830842   16.958428   21.388048 H          1 MOL1         0.0751
      87    O21     23.759842   17.177352   21.743664 O.3        1 MOL1        -0.3740
      88    C26     25.418367   18.593022   22.778407 C.3        1 MOL1         0.1003
      89    H42     26.405210   19.040677   22.602569 H          1 MOL1         0.0783
      90    O22     25.475107   17.778988   23.960872 O.3        1 MOL1        -0.5519
      91    H43     24.790960   17.069433   23.864021 H          1 MOL1         0.3769
      92    C27     24.400180   19.745026   22.963316 C.3        1 MOL1         0.1053
      93    H44     23.429970   19.302922   23.228987 H          1 MOL1         0.0783
      94    O23     24.854407   20.589693   24.026268 O.3        1 MOL1        -0.5519
      95    H45     25.184024   19.968541   24.715406 H          1 MOL1         0.3769
      96    C28     24.218457   20.552093   21.646639 C.3        1 MOL1         0.1018
      97    H46     25.114799   21.155338   21.449405 H          1 MOL1         0.0783
      98    C29     23.971739   19.618770   20.433645 C.3        1 MOL1         0.1043
      99    H47     22.989359   19.147930   20.551322 H          1 MOL1         0.0783
     100    O24     25.014509   18.615231   20.393431 O.3        1 MOL1        -0.3740
     101    C30     23.989777   20.369838   19.085238 C.3        1 MOL1         0.0138
     102    H48     25.004448   20.741767   18.889997 H          1 MOL1         0.0794
     103    H49     23.323515   21.239457   19.145844 H          1 MOL1         0.0794
     104    O25     23.557535   19.503664   18.031689 O.3        1 MOL1        -0.5486
     105    H50     24.148812   18.719273   18.057106 H          1 MOL1         0.3769
     106    C31     21.511393   13.718417   21.322530 C.3        1 MOL1         0.2972
     107    H51     21.158281   12.693366   21.153791 H          1 MOL1         0.0751
     108    O26     20.421690   14.644013   21.502992 O.3        1 MOL1        -0.3740
     109    C32     22.393113   13.779096   22.593780 C.3        1 MOL1         0.1003
     110    H52     23.248964   13.109647   22.437538 H          1 MOL1         0.0783
     111    O27     21.654917   13.344450   23.747195 O.3        1 MOL1        -0.5519
     112    H53     20.720466   13.652532   23.633879 H          1 MOL1         0.3769
     113    C33     22.936803   15.211194   22.808247 C.3        1 MOL1         0.1053
     114    H54     22.085647   15.860230   23.050228 H          1 MOL1         0.0783
     115    O28     23.868718   15.215402   23.893784 O.3        1 MOL1        -0.5519
     116    H55     23.442115   14.677558   24.597881 H          1 MOL1         0.3769
     117    C34     23.613808   15.761315   21.527795 C.3        1 MOL1         0.1018
     118    H56     24.580166   15.258009   21.391646 H          1 MOL1         0.0783
     119    C35     22.735342   15.553203   20.263570 C.3        1 MOL1         0.1043
     120    H57     21.865766   16.218426   20.326506 H          1 MOL1         0.0783
     121    O29     22.308204   14.170553   20.208578 O.3        1 MOL1        -0.3740
     122    C36     23.479186   15.856212   18.946465 C.3        1 MOL1         0.0138
     123    H58     24.215703   15.065220   18.751850 H          1 MOL1         0.0794
     124    H59     24.024862   16.799781   19.043178 H          1 MOL1         0.0794
     125    O30     22.548376   15.960946   17.867368 O.3        1 MOL1        -0.5486
     126    H60     22.049568   15.116874   17.835555 H          1 MOL1         0.3769
     127    N1      20.763458   19.363429   17.092944 N.4        1 MOL1        -0.4857
     128    H1      21.783213   19.233382   17.251370 H          1 MOL1         0.3650
     129    H2      20.691244   20.132430   16.410137 H          1 MOL1         0.3650
     130    C1      20.107985   19.775505   18.397517 C.3        1 MOL1         0.0209
     131    H3      19.054620   19.990346   18.200956 H          1 MOL1         0.0967
     132    H4      20.593078   20.701341   18.716944 H          1 MOL1         0.0967
     133    C2      20.232085   18.725570   19.516758 C.3        1 MOL1        -0.1378
     134    H5      19.499845   17.926147   19.349010 H          1 MOL1         0.0993
     135    H6      21.225600   18.263606   19.463605 H          1 MOL1         0.0993
     136    C3      20.028748   19.354889   20.910571 C.3        1 MOL1        -0.1338
     137    H7      19.028550   19.803714   20.976671 H          1 MOL1         0.0993
     138    H8      20.752188   20.169294   21.039836 H          1 MOL1         0.0993
     139    C4      20.211283   18.320056   22.042156 C.3        1 MOL1        -0.1338
     140    H9      19.461093   17.525368   21.935104 H          1 MOL1         0.0993
     141    H10     21.193870   17.842427   21.948703 H          1 MOL1         0.0993
     142    C5      20.095822   18.963431   23.441295 C.3        1 MOL1        -0.1313
     143    H11     20.880741   19.721474   23.566632 H          1 MOL1         0.0993
     144    H12     19.133959   19.486417   23.537705 H          1 MOL1         0.0993
     145    C6      20.225823   17.914004   24.564737 C.3        1 MOL1        -0.2328
     146    H13     20.102977   18.385742   25.548053 H          1 MOL1         0.1004
     147    H14     21.212835   17.435156   24.544917 H          1 MOL1         0.1004
     148    H15     19.461717   17.131724   24.468093 H          1 MOL1         0.1004
     149    C7      20.133628   18.094481   16.529080 C.3        1 MOL1        -0.0781
     150    H16     19.065480   18.261420   16.375421 H          1 MOL1         0.0978
     151    H17     20.611873   17.851222   15.578074 H          1 MOL1         0.0978
     152    H18     20.283775   17.271870   17.232760 H          1 MOL1         0.0978
@<TRIPOS>BOND
    1     1     2    1
    2     1     3    1
    3     1     4    1
    4     4     5    1
    5     4     6    1
    6     6     7    1
    7     4     8    1
    8     8     9    1
    9     8    10    1
   10    10    11    1
   11     8    12    1
   12    12    13    1
   13    12    14    1
   14    14    15    1
   15     1    16    1
   16    14    16    1
   17    14    17    1
   18    17    18    1
   19    17    19    1
   20    17    20    1
   21    20    21    1
   22    22    23    1
   23    22    24    1
   24    22    25    1
   25    25    26    1
   26    25    27    1
   27    27    28    1
   28    25    29    1
   29    29    30    1
   30    29    31    1
   31    31    32    1
   32     3    33    1
   33    29    33    1
   34    33    34    1
   35    33    35    1
   36    35    36    1
   37    22    37    1
   38    35    37    1
   39    35    38    1
   40    38    39    1
   41    38    40    1
   42    38    41    1
   43    41    42    1
   44    43    44    1
   45    43    45    1
   46    43    46    1
   47    46    47    1
   48    46    48    1
   49    48    49    1
   50    46    50    1
   51    50    51    1
   52    50    52    1
   53    52    53    1
   54    24    54    1
   55    50    54    1
   56    54    55    1
   57    54    56    1
   58    56    57    1
   59    43    58    1
   60    56    58    1
   61    56    59    1
   62    59    60    1
   63    59    61    1
   64    59    62    1
   65    62    63    1
   66    64    65    1
   67    64    66    1
   68    64    67    1
   69    67    68    1
   70    67    69    1
   71    69    70    1
   72    67    71    1
   73    71    72    1
   74    71    73    1
   75    73    74    1
   76    45    75    1
   77    71    75    1
   78    75    76    1
   79    75    77    1
   80    77    78    1
   81    64    79    1
   82    77    79    1
   83    77    80    1
   84    80    81    1
   85    80    82    1
   86    80    83    1
   87    83    84    1
   88    85    86    1
   89    85    87    1
   90    85    88    1
   91    88    89    1
   92    88    90    1
   93    90    91    1
   94    88    92    1
   95    92    93    1
   96    92    94    1
   97    94    95    1
   98    66    96    1
   99    92    96    1
  100    96    97    1
  101    96    98    1
  102    98    99    1
  103    85   100    1
  104    98   100    1
  105    98   101    1
  106   101   102    1
  107   101   103    1
  108   101   104    1
  109   104   105    1
  110   106   107    1
  111    12   108    1
  112   106   108    1
  113   106   109    1
  114   109   110    1
  115   109   111    1
  116   111   112    1
  117   109   113    1
  118   113   114    1
  119   113   115    1
  120   115   116    1
  121    87   117    1
  122   113   117    1
  123   117   118    1
  124   117   119    1
  125   119   120    1
  126   106   121    1
  127   119   121    1
  128   119   122    1
  129   122   123    1
  130   122   124    1
  131   122   125    1
  132   125   126    1
  133   127   128    1
  134   127   129    1
  135   127   130    1
  136   130   131    1
  137   130   132    1
  138   130   133    1
  139   133   134    1
  140   133   135    1
  141   133   136    1
  142   136   137    1
  143   136   138    1
  144   136   139    1
  145   139   140    1
  146   139   141    1
  147   139   142    1
  148   142   143    1
  149   142   144    1
  150   142   145    1
  151   145   146    1
  152   145   147    1
  153   145   148    1
  154   127   149    1
  155   149   150    1
  156   149   151    1
  157   149   152    1
@<TRIPOS>SUBSTRUCTURE
       1 MOL1            1 RESIDUE      1      MOL     
       2 MOL1          152 RESIDUE      1      MOL     
@<SCITEGIC>MOL_PROPERTY
VM2 Rank
SciTegic.value.IntegerValue
4

@<SCITEGIC>MOL_PROPERTY
Conf_Id
SciTegic.value.IntegerValue
24786

@<SCITEGIC>MOL_PROPERTY
Probability
SciTegic.value.DoubleValue
1.44

@<SCITEGIC>MOL_PROPERTY
Sum Probability
SciTegic.value.DoubleValue
7.21

@<SCITEGIC>MOL_PROPERTY
Delta G
SciTegic.value.DoubleValue
0.291

@<SCITEGIC>MOL_PROPERTY
G
SciTegic.value.DoubleValue
595.060

@<SCITEGIC>MOL_PROPERTY
E
SciTegic.value.DoubleValue
391.019

@<SCITEGIC>MOL_PROPERTY
-TS
SciTegic.value.DoubleValue
204.041

@<SCITEGIC>MOL_PROPERTY
U+W
SciTegic.value.DoubleValue
256.882

@<SCITEGIC>MOL_PROPERTY
U
SciTegic.value.DoubleValue
316.804

@<SCITEGIC>MOL_PROPERTY
W
SciTegic.value.DoubleValue
-59.922

@<SCITEGIC>MOL_PROPERTY
W(PB)
SciTegic.value.DoubleValue
-65.843

@<SCITEGIC>MOL_PROPERTY
W(SA)
SciTegic.value.DoubleValue
5.921

@<SCITEGIC>MOL_PROPERTY
Valence
SciTegic.value.DoubleValue
146.747

@<SCITEGIC>MOL_PROPERTY
Coulomb
SciTegic.value.DoubleValue
198.914

@<SCITEGIC>MOL_PROPERTY
VdW
SciTegic.value.DoubleValue
-28.856

@<SCITEGIC>MOL_PROPERTY
VdW6
SciTegic.value.DoubleValue
-182.421

@<SCITEGIC>MOL_PROPERTY
VdW12
SciTegic.value.DoubleValue
153.565

@<SCITEGIC>MOL_PROPERTY
Bond
SciTegic.value.DoubleValue
4.272

@<SCITEGIC>MOL_PROPERTY
Angle
SciTegic.value.DoubleValue
9.731

@<SCITEGIC>MOL_PROPERTY
Pdih
SciTegic.value.DoubleValue
132.744

@<SCITEGIC>MOL_PROPERTY
Idih
SciTegic.value.DoubleValue
0.000

@<SCITEGIC>MOL_PROPERTY
Tether
SciTegic.value.DoubleValue
0.000

@<TRIPOS>MOLECULE
CD_guest-s12_vm2_rndm.mol2 : vm2 host+ligand conformer 5
         152         157           2
SMALL
USER_CHARGES
 
@<TRIPOS>ATOM
       1    C1      16.183697   14.948963   20.609874 C.3        1 MOL1         0.2972
       2    H1      15.127278   14.834694   20.334370 H          1 MOL1         0.0751
       3    O1      16.527119   16.331938   20.848777 O.3        1 MOL1        -0.3740
       4    C2      16.542864   14.091523   21.850677 C.3        1 MOL1         0.1003
       5    H2      16.425090   13.039734   21.558721 H          1 MOL1         0.0783
       6    O2      15.678411   14.357549   22.964133 O.3        1 MOL1        -0.5519
       7    H3      15.843996   15.294427   23.239000 H          1 MOL1         0.3769
       8    C3      18.023877   14.313341   22.240497 C.3        1 MOL1         0.1053
       9    H4      18.128737   15.348208   22.595642 H          1 MOL1         0.0783
      10    O3      18.372918   13.405190   23.290976 O.3        1 MOL1        -0.5519
      11    H5      17.591103   13.393831   23.888877 H          1 MOL1         0.3769
      12    C4      18.975376   14.123100   21.025258 C.3        1 MOL1         0.1018
      13    H6      19.153478   13.051977   20.860289 H          1 MOL1         0.0783
      14    C5      18.442818   14.744711   19.704999 C.3        1 MOL1         0.1043
      15    H7      18.607076   15.827315   19.742128 H          1 MOL1         0.0783
      16    O4      17.029027   14.468212   19.544788 O.3        1 MOL1        -0.3740
      17    C6      19.182333   14.186639   18.470258 C.3        1 MOL1         0.0138
      18    H8      18.997253   13.106886   18.393900 H          1 MOL1         0.0794
      19    H9      20.263469   14.332149   18.600512 H          1 MOL1         0.0794
      20    O5      18.740120   14.854397   17.286923 O.3        1 MOL1        -0.5486
      21    H10     17.760124   14.782894   17.284228 H          1 MOL1         0.3769
      22    C7      15.057872   20.082560   21.753178 C.3        1 MOL1         0.2972
      23    H11     14.447452   20.950209   22.033146 H          1 MOL1         0.0751
      24    O6      16.329072   20.481556   21.199359 O.3        1 MOL1        -0.3740
      25    C8      15.314131   19.184387   22.989454 C.3        1 MOL1         0.1003
      26    H12     14.334137   18.856245   23.359792 H          1 MOL1         0.0783
      27    O7      15.996280   19.902327   24.030787 O.3        1 MOL1        -0.5519
      28    H13     15.849247   20.864303   23.862926 H          1 MOL1         0.3769
      29    C9      16.127910   17.930370   22.596590 C.3        1 MOL1         0.1053
      30    H14     17.132465   18.257807   22.305123 H          1 MOL1         0.0783
      31    O8      16.217329   17.067396   23.732857 O.3        1 MOL1        -0.5519
      32    H15     16.450987   17.666529   24.477722 H          1 MOL1         0.3769
      33    C10     15.501812   17.187170   21.388377 C.3        1 MOL1         0.1018
      34    H16     14.626861   16.618995   21.731203 H          1 MOL1         0.0783
      35    C11     15.095477   18.155300   20.241882 C.3        1 MOL1         0.1043
      36    H17     16.011565   18.510934   19.752244 H          1 MOL1         0.0783
      37    O9      14.361714   19.286538   20.770997 O.3        1 MOL1        -0.3740
      38    C12     14.219108   17.485365   19.160338 C.3        1 MOL1         0.0138
      39    H18     14.800370   16.693712   18.669024 H          1 MOL1         0.0794
      40    H19     13.970585   18.231788   18.394031 H          1 MOL1         0.0794
      41    O10     13.024889   16.939281   19.727679 O.3        1 MOL1        -0.5486
      42    H20     12.564790   17.685525   20.172703 H          1 MOL1         0.3769
      43    C13     18.558567   23.992478   20.863144 C.3        1 MOL1         0.2972
      44    H21     18.918931   25.001568   20.624355 H          1 MOL1         0.0751
      45    O11     19.621078   23.142700   21.333235 O.3        1 MOL1        -0.3740
      46    C14     17.455445   24.035225   21.950803 C.3        1 MOL1         0.1003
      47    H22     16.626775   24.632556   21.548703 H          1 MOL1         0.0783
      48    O12     17.930519   24.650795   23.158672 O.3        1 MOL1        -0.5519
      49    H23     18.761778   24.182400   23.425980 H          1 MOL1         0.3769
      50    C15     16.917784   22.612322   22.244403 C.3        1 MOL1         0.1053
      51    H24     17.726210   22.031565   22.709617 H          1 MOL1         0.0783
      52    O13     15.816099   22.721927   23.152552 O.3        1 MOL1        -0.5519
      53    H25     16.087103   23.417504   23.794581 H          1 MOL1         0.3769
      54    C16     16.495854   21.888899   20.932274 C.3        1 MOL1         0.1018
      55    H26     15.567831   22.331214   20.545984 H          1 MOL1         0.0783
      56    C17     17.589692   21.994209   19.837159 C.3        1 MOL1         0.1043
      57    H27     18.448099   21.379099   20.133850 H          1 MOL1         0.0783
      58    O14     17.988811   23.378587   19.688258 O.3        1 MOL1        -0.3740
      59    C18     17.093476   21.499321   18.462774 C.3        1 MOL1         0.0138
      60    H28     16.299174   22.165979   18.101332 H          1 MOL1         0.0794
      61    H29     16.662550   20.495790   18.571920 H          1 MOL1         0.0794
      62    O15     18.180564   21.461938   17.536006 O.3        1 MOL1        -0.5486
      63    H30     18.574149   22.361508   17.541336 H          1 MOL1         0.3769
      64    C19     23.614329   22.919511   22.121201 C.3        1 MOL1         0.2972
      65    H31     24.682917   23.035901   22.343570 H          1 MOL1         0.0751
      66    O16     23.292211   21.574718   21.709283 O.3        1 MOL1        -0.3740
      67    C20     22.764913   23.278638   23.365402 C.3        1 MOL1         0.1003
      68    H32     22.935507   24.340553   23.585520 H          1 MOL1         0.0783
      69    O17     23.147379   22.493691   24.505673 O.3        1 MOL1        -0.5519
      70    H33     23.728568   21.763390   24.177766 H          1 MOL1         0.3769
      71    C21     21.261870   23.087387   23.065105 C.3        1 MOL1         0.1053
      72    H34     21.085726   22.012297   22.952904 H          1 MOL1         0.0783
      73    O18     20.487512   23.578652   24.162920 O.3        1 MOL1        -0.5519
      74    H35     20.932681   23.220490   24.963559 H          1 MOL1         0.3769
      75    C22     20.830867   23.797730   21.755243 C.3        1 MOL1         0.1018
      76    H36     20.668013   24.861264   21.975650 H          1 MOL1         0.0783
      77    C23     21.850862   23.641705   20.588680 C.3        1 MOL1         0.1043
      78    H37     21.734820   22.633087   20.170888 H          1 MOL1         0.0783
      79    O19     23.210442   23.813181   21.063882 O.3        1 MOL1        -0.3740
      80    C24     21.624860   24.643797   19.434914 C.3        1 MOL1         0.0138
      81    H38     20.648325   24.446133   18.973634 H          1 MOL1         0.0794
      82    H39     22.388868   24.473546   18.664513 H          1 MOL1         0.0794
      83    O20     21.685010   25.993818   19.903569 O.3        1 MOL1        -0.5486
      84    H40     22.568489   26.102105   20.321110 H          1 MOL1         0.3769
      85    C25     24.942284   17.838557   21.024012 C.3        1 MOL1         0.2972
      86    H41     25.586159   16.991290   20.757497 H          1 MOL1         0.0751
      87    O21     23.570385   17.422265   21.200376 O.3        1 MOL1        -0.3740
      88    C26     25.466514   18.554032   22.299630 C.3        1 MOL1         0.1003
      89    H42     26.476123   18.917569   22.067753 H          1 MOL1         0.0783
      90    O22     25.545639   17.664924   23.423004 O.3        1 MOL1        -0.5519
      91    H43     24.617722   17.393863   23.639354 H          1 MOL1         0.3769
      92    C27     24.590749   19.783026   22.642667 C.3        1 MOL1         0.1053
      93    H44     23.600739   19.417411   22.948708 H          1 MOL1         0.0783
      94    O23     25.192178   20.508764   23.718829 O.3        1 MOL1        -0.5519
      95    H45     25.494536   19.821972   24.355133 H          1 MOL1         0.3769
      96    C28     24.404463   20.711276   21.413545 C.3        1 MOL1         0.1018
      97    H46     25.327537   21.276270   21.226821 H          1 MOL1         0.0783
      98    C29     24.033661   19.920952   20.132431 C.3        1 MOL1         0.1043
      99    H47     23.008838   19.553297   20.240647 H          1 MOL1         0.0783
     100    O24     24.954904   18.814976   19.963868 O.3        1 MOL1        -0.3740
     101    C30     24.091368   20.776207   18.851809 C.3        1 MOL1         0.0138
     102    H48     25.114656   21.146967   18.705247 H          1 MOL1         0.0794
     103    H49     23.432575   21.646474   18.964365 H          1 MOL1         0.0794
     104    O25     23.676403   19.984703   17.735521 O.3        1 MOL1        -0.5486
     105    H50     24.314102   19.236092   17.700754 H          1 MOL1         0.3769
     106    C31     21.216762   14.076667   22.005772 C.3        1 MOL1         0.2972
     107    H51     20.857209   13.083178   22.303399 H          1 MOL1         0.0751
     108    O26     20.197828   14.825861   21.317396 O.3        1 MOL1        -0.3740
     109    C32     21.684712   14.876278   23.250772 C.3        1 MOL1         0.1003
     110    H52     22.482456   14.291984   23.727600 H          1 MOL1         0.0783
     111    O27     20.618346   15.073119   24.193475 O.3        1 MOL1        -0.5519
     112    H53     19.899266   14.436929   23.961583 H          1 MOL1         0.3769
     113    C33     22.270678   16.245540   22.839662 C.3        1 MOL1         0.1053
     114    H54     21.447179   16.851673   22.442760 H          1 MOL1         0.0783
     115    O28     22.826822   16.878309   23.995774 O.3        1 MOL1        -0.5519
     116    H55     22.140087   16.764630   24.691081 H          1 MOL1         0.3769
     117    C34     23.341731   16.101222   21.729169 C.3        1 MOL1         0.1018
     118    H56     24.252644   15.666680   22.162037 H          1 MOL1         0.0783
     119    C35     22.839707   15.206988   20.562975 C.3        1 MOL1         0.1043
     120    H57     22.042011   15.740621   20.028836 H          1 MOL1         0.0783
     121    O29     22.341537   13.958043   21.108249 O.3        1 MOL1        -0.3740
     122    C36     23.945294   14.862652   19.544189 C.3        1 MOL1         0.0138
     123    H58     24.739395   14.293060   20.045270 H          1 MOL1         0.0794
     124    H59     24.386226   15.790454   19.157310 H          1 MOL1         0.0794
     125    O30     23.389740   14.110594   18.464066 O.3        1 MOL1        -0.5486
     126    H60     22.919479   13.351609   18.874825 H          1 MOL1         0.3769
     127    N1      21.541564   18.318997   16.543207 N.4        1 MOL1        -0.4857
     128    H1      22.121555   18.911321   17.168031 H          1 MOL1         0.3650
     129    H2      21.827425   18.595899   15.591984 H          1 MOL1         0.3650
     130    C1      20.065493   18.633946   16.740519 C.3        1 MOL1         0.0209
     131    H3      19.506460   18.085428   15.978399 H          1 MOL1         0.0967
     132    H4      19.930653   19.702880   16.553472 H          1 MOL1         0.0967
     133    C2      19.492406   18.292330   18.131917 C.3        1 MOL1        -0.1378
     134    H5      18.442302   18.610616   18.162586 H          1 MOL1         0.0993
     135    H6      19.493980   17.206513   18.265610 H          1 MOL1         0.0993
     136    C3      20.274943   18.959829   19.282484 C.3        1 MOL1        -0.1338
     137    H7      20.343239   20.040632   19.094251 H          1 MOL1         0.0993
     138    H8      21.299429   18.568021   19.298674 H          1 MOL1         0.0993
     139    C4      19.617398   18.710733   20.657564 C.3        1 MOL1        -0.1338
     140    H9      18.571187   19.041021   20.627969 H          1 MOL1         0.0993
     141    H10     19.605179   17.635070   20.879839 H          1 MOL1         0.0993
     142    C5      20.366000   19.464641   21.776135 C.3        1 MOL1        -0.1313
     143    H11     21.399993   19.102782   21.842089 H          1 MOL1         0.0993
     144    H12     20.421946   20.528455   21.515739 H          1 MOL1         0.0993
     145    C6      19.683172   19.306126   23.150125 C.3        1 MOL1        -0.2328
     146    H13     20.273703   19.797378   23.934190 H          1 MOL1         0.1004
     147    H14     19.576780   18.247551   23.422507 H          1 MOL1         0.1004
     148    H15     18.685748   19.763290   23.149224 H          1 MOL1         0.1004
     149    C7      21.831803   16.837311   16.766061 C.3        1 MOL1        -0.0781
     150    H16     21.212692   16.244399   16.089043 H          1 MOL1         0.0978
     151    H17     22.888249   16.643156   16.568258 H          1 MOL1         0.0978
     152    H18     21.599556   16.573960   17.799882 H          1 MOL1         0.0978
@<TRIPOS>BOND
    1     1     2    1
    2     1     3    1
    3     1     4    1
    4     4     5    1
    5     4     6    1
    6     6     7    1
    7     4     8    1
    8     8     9    1
    9     8    10    1
   10    10    11    1
   11     8    12    1
   12    12    13    1
   13    12    14    1
   14    14    15    1
   15     1    16    1
   16    14    16    1
   17    14    17    1
   18    17    18    1
   19    17    19    1
   20    17    20    1
   21    20    21    1
   22    22    23    1
   23    22    24    1
   24    22    25    1
   25    25    26    1
   26    25    27    1
   27    27    28    1
   28    25    29    1
   29    29    30    1
   30    29    31    1
   31    31    32    1
   32     3    33    1
   33    29    33    1
   34    33    34    1
   35    33    35    1
   36    35    36    1
   37    22    37    1
   38    35    37    1
   39    35    38    1
   40    38    39    1
   41    38    40    1
   42    38    41    1
   43    41    42    1
   44    43    44    1
   45    43    45    1
   46    43    46    1
   47    46    47    1
   48    46    48    1
   49    48    49    1
   50    46    50    1
   51    50    51    1
   52    50    52    1
   53    52    53    1
   54    24    54    1
   55    50    54    1
   56    54    55    1
   57    54    56    1
   58    56    57    1
   59    43    58    1
   60    56    58    1
   61    56    59    1
   62    59    60    1
   63    59    61    1
   64    59    62    1
   65    62    63    1
   66    64    65    1
   67    64    66    1
   68    64    67    1
   69    67    68    1
   70    67    69    1
   71    69    70    1
   72    67    71    1
   73    71    72    1
   74    71    73    1
   75    73    74    1
   76    45    75    1
   77    71    75    1
   78    75    76    1
   79    75    77    1
   80    77    78    1
   81    64    79    1
   82    77    79    1
   83    77    80    1
   84    80    81    1
   85    80    82    1
   86    80    83    1
   87    83    84    1
   88    85    86    1
   89    85    87    1
   90    85    88    1
   91    88    89    1
   92    88    90    1
   93    90    91    1
   94    88    92    1
   95    92    93    1
   96    92    94    1
   97    94    95    1
   98    66    96    1
   99    92    96    1
  100    96    97    1
  101    96    98    1
  102    98    99    1
  103    85   100    1
  104    98   100    1
  105    98   101    1
  106   101   102    1
  107   101   103    1
  108   101   104    1
  109   104   105    1
  110   106   107    1
  111    12   108    1
  112   106   108    1
  113   106   109    1
  114   109   110    1
  115   109   111    1
  116   111   112    1
  117   109   113    1
  118   113   114    1
  119   113   115    1
  120   115   116    1
  121    87   117    1
  122   113   117    1
  123   117   118    1
  124   117   119    1
  125   119   120    1
  126   106   121    1
  127   119   121    1
  128   119   122    1
  129   122   123    1
  130   122   124    1
  131   122   125    1
  132   125   126    1
  133   127   128    1
  134   127   129    1
  135   127   130    1
  136   130   131    1
  137   130   132    1
  138   130   133    1
  139   133   134    1
  140   133   135    1
  141   133   136    1
  142   136   137    1
  143   136   138    1
  144   136   139    1
  145   139   140    1
  146   139   141    1
  147   139   142    1
  148   142   143    1
  149   142   144    1
  150   142   145    1
  151   145   146    1
  152   145   147    1
  153   145   148    1
  154   127   149    1
  155   149   150    1
  156   149   151    1
  157   149   152    1
@<TRIPOS>SUBSTRUCTURE
       1 MOL1            1 RESIDUE      1      MOL     
       2 MOL1          152 RESIDUE      1      MOL     
@<SCITEGIC>MOL_PROPERTY
VM2 Rank
SciTegic.value.IntegerValue
5

@<SCITEGIC>MOL_PROPERTY
Conf_Id
SciTegic.value.IntegerValue
22396

@<SCITEGIC>MOL_PROPERTY
Probability
SciTegic.value.DoubleValue
1.41

@<SCITEGIC>MOL_PROPERTY
Sum Probability
SciTegic.value.DoubleValue
8.62

@<SCITEGIC>MOL_PROPERTY
Delta G
SciTegic.value.DoubleValue
0.306

@<SCITEGIC>MOL_PROPERTY
G
SciTegic.value.DoubleValue
595.074

@<SCITEGIC>MOL_PROPERTY
E
SciTegic.value.DoubleValue
391.253

@<SCITEGIC>MOL_PROPERTY
-TS
SciTegic.value.DoubleValue
203.821

@<SCITEGIC>MOL_PROPERTY
U+W
SciTegic.value.DoubleValue
257.117

@<SCITEGIC>MOL_PROPERTY
U
SciTegic.value.DoubleValue
319.264

@<SCITEGIC>MOL_PROPERTY
W
SciTegic.value.DoubleValue
-62.146

@<SCITEGIC>MOL_PROPERTY
W(PB)
SciTegic.value.DoubleValue
-68.109

@<SCITEGIC>MOL_PROPERTY
W(SA)
SciTegic.value.DoubleValue
5.963

@<SCITEGIC>MOL_PROPERTY
Valence
SciTegic.value.DoubleValue
146.789

@<SCITEGIC>MOL_PROPERTY
Coulomb
SciTegic.value.DoubleValue
199.304

@<SCITEGIC>MOL_PROPERTY
VdW
SciTegic.value.DoubleValue
-26.829

@<SCITEGIC>MOL_PROPERTY
VdW6
SciTegic.value.DoubleValue
-181.004

@<SCITEGIC>MOL_PROPERTY
VdW12
SciTegic.value.DoubleValue
154.175

@<SCITEGIC>MOL_PROPERTY
Bond
SciTegic.value.DoubleValue
4.391

@<SCITEGIC>MOL_PROPERTY
Angle
SciTegic.value.DoubleValue
10.350

@<SCITEGIC>MOL_PROPERTY
Pdih
SciTegic.value.DoubleValue
132.049

@<SCITEGIC>MOL_PROPERTY
Idih
SciTegic.value.DoubleValue
0.000

@<SCITEGIC>MOL_PROPERTY
Tether
SciTegic.value.DoubleValue
0.000

@<TRIPOS>MOLECULE
CD_guest-s12_vm2_rndm.mol2 : vm2 host+ligand conformer 6
         152         157           2
SMALL
USER_CHARGES
 
@<TRIPOS>ATOM
       1    C1      16.286958   15.263220   20.759251 C.3        1 MOL1         0.2972
       2    H1      15.251373   15.058237   20.458127 H          1 MOL1         0.0751
       3    O1      16.458007   16.624472   21.194225 O.3        1 MOL1        -0.3740
       4    C2      16.729125   14.328971   21.913957 C.3        1 MOL1         0.1003
       5    H2      16.653746   13.297938   21.544565 H          1 MOL1         0.0783
       6    O2      15.880308   14.476500   23.063572 O.3        1 MOL1        -0.5519
       7    H3      15.849288   15.440531   23.290472 H          1 MOL1         0.3769
       8    C3      18.207077   14.591243   22.296823 C.3        1 MOL1         0.1053
       9    H4      18.272398   15.598168   22.731464 H          1 MOL1         0.0783
      10    O3      18.605682   13.618480   23.269129 O.3        1 MOL1        -0.5519
      11    H5      17.828981   13.526932   23.867208 H          1 MOL1         0.3769
      12    C4      19.129911   14.545107   21.044418 C.3        1 MOL1         0.1018
      13    H6      19.239428   13.507779   20.700846 H          1 MOL1         0.0783
      14    C5      18.565137   15.397440   19.877622 C.3        1 MOL1         0.1043
      15    H7      18.645472   16.458833   20.142541 H          1 MOL1         0.0783
      16    O4      17.180513   15.038687   19.648720 O.3        1 MOL1        -0.3740
      17    C6      19.332355   15.170927   18.558239 C.3        1 MOL1         0.0138
      18    H8      19.176710   14.137948   18.219639 H          1 MOL1         0.0794
      19    H9      20.407728   15.305190   18.733846 H          1 MOL1         0.0794
      20    O5      18.882444   16.098951   17.568739 O.3        1 MOL1        -0.5486
      21    H10     17.907755   15.992314   17.517741 H          1 MOL1         0.3769
      22    C7      14.615362   20.219939   21.705562 C.3        1 MOL1         0.2972
      23    H11     13.974641   21.100045   21.846210 H          1 MOL1         0.0751
      24    O6      15.971144   20.585625   21.377293 O.3        1 MOL1        -0.3740
      25    C8      14.636383   19.358860   22.991838 C.3        1 MOL1         0.1003
      26    H12     13.616755   18.987693   23.158503 H          1 MOL1         0.0783
      27    O7      15.049727   20.133296   24.128744 O.3        1 MOL1        -0.5519
      28    H13     15.434612   20.976736   23.783700 H          1 MOL1         0.3769
      29    C9      15.567362   18.139640   22.806620 C.3        1 MOL1         0.1053
      30    H14     16.593980   18.517848   22.751191 H          1 MOL1         0.0783
      31    O8      15.447794   17.268188   23.934766 O.3        1 MOL1        -0.5519
      32    H15     15.483514   17.863594   24.716778 H          1 MOL1         0.3769
      33    C10     15.259506   17.358628   21.501997 C.3        1 MOL1         0.1018
      34    H16     14.406022   16.693503   21.690006 H          1 MOL1         0.0783
      35    C11     14.968890   18.270530   20.273055 C.3        1 MOL1         0.1043
      36    H17     15.928083   18.656235   19.902623 H          1 MOL1         0.0783
      37    O9      14.113813   19.381681   20.644693 O.3        1 MOL1        -0.3740
      38    C12     14.292059   17.526787   19.100421 C.3        1 MOL1         0.0138
      39    H18     14.978677   16.760758   18.716776 H          1 MOL1         0.0794
      40    H19     14.113568   18.240927   18.285383 H          1 MOL1         0.0794
      41    O10     13.061196   16.925225   19.511402 O.3        1 MOL1        -0.5486
      42    H20     12.501749   17.653419   19.862619 H          1 MOL1         0.3769
      43    C13     18.468100   23.804029   20.668134 C.3        1 MOL1         0.2972
      44    H21     18.913125   24.762619   20.372068 H          1 MOL1         0.0751
      45    O11     19.486304   22.833026   20.993674 O.3        1 MOL1        -0.3740
      46    C14     17.491831   23.990097   21.864345 C.3        1 MOL1         0.1003
      47    H22     16.701132   24.672974   21.527305 H          1 MOL1         0.0783
      48    O12     18.135775   24.562102   23.012537 O.3        1 MOL1        -0.5519
      49    H23     18.803216   23.899827   23.324181 H          1 MOL1         0.3769
      50    C15     16.827014   22.646346   22.242694 C.3        1 MOL1         0.1053
      51    H24     17.607581   21.984354   22.642483 H          1 MOL1         0.0783
      52    O13     15.827021   22.871017   23.241249 O.3        1 MOL1        -0.5519
      53    H25     16.231149   23.510422   23.870324 H          1 MOL1         0.3769
      54    C16     16.196790   21.956781   21.006399 C.3        1 MOL1         0.1018
      55    H26     15.266434   22.467968   20.724765 H          1 MOL1         0.0783
      56    C17     17.150603   21.938470   19.783643 C.3        1 MOL1         0.1043
      57    H27     17.952386   21.222679   19.987617 H          1 MOL1         0.0783
      58    O14     17.695033   23.265542   19.575930 O.3        1 MOL1        -0.3740
      59    C18     16.435293   21.501850   18.486315 C.3        1 MOL1         0.0138
      60    H28     15.833909   22.339370   18.108103 H          1 MOL1         0.0794
      61    H29     15.746005   20.679079   18.715564 H          1 MOL1         0.0794
      62    O15     17.381967   21.071984   17.501096 O.3        1 MOL1        -0.5486
      63    H30     16.871467   20.841074   16.694639 H          1 MOL1         0.3769
      64    C19     23.472207   22.566109   22.167214 C.3        1 MOL1         0.2972
      65    H31     24.482744   22.764320   22.547268 H          1 MOL1         0.0751
      66    O16     23.392929   21.287942   21.509384 O.3        1 MOL1        -0.3740
      67    C20     22.442260   22.602073   23.327327 C.3        1 MOL1         0.1003
      68    H32     22.493356   23.603586   23.774033 H          1 MOL1         0.0783
      69    O17     22.737328   21.621186   24.335152 O.3        1 MOL1        -0.5519
      70    H33     23.657199   21.299563   24.173463 H          1 MOL1         0.3769
      71    C21     21.007875   22.383549   22.796400 C.3        1 MOL1         0.1053
      72    H34     20.944619   21.352913   22.426901 H          1 MOL1         0.0783
      73    O18     20.079347   22.575600   23.868218 O.3        1 MOL1        -0.5519
      74    H35     20.463075   22.068800   24.618930 H          1 MOL1         0.3769
      75    C22     20.681253   23.338962   21.622590 C.3        1 MOL1         0.1018
      76    H36     20.538469   24.351246   22.022623 H          1 MOL1         0.0783
      77    C23     21.808969   23.359083   20.554029 C.3        1 MOL1         0.1043
      78    H37     21.809320   22.392221   20.033720 H          1 MOL1         0.0783
      79    O19     23.089509   23.570313   21.202205 O.3        1 MOL1        -0.3740
      80    C24     21.631689   24.461421   19.486243 C.3        1 MOL1         0.0138
      81    H38     20.725766   24.251345   18.902183 H          1 MOL1         0.0794
      82    H39     22.482526   24.421937   18.792945 H          1 MOL1         0.0794
      83    O20     21.540965   25.755855   20.087989 O.3        1 MOL1        -0.5486
      84    H40     22.364580   25.875717   20.611087 H          1 MOL1         0.3769
      85    C25     25.341777   17.739964   21.042656 C.3        1 MOL1         0.2972
      86    H41     25.991461   16.879542   20.839301 H          1 MOL1         0.0751
      87    O21     23.956939   17.345398   21.175685 O.3        1 MOL1        -0.3740
      88    C26     25.806912   18.511631   22.303966 C.3        1 MOL1         0.1003
      89    H42     26.792812   18.936428   22.073718 H          1 MOL1         0.0783
      90    O22     25.935672   17.655338   23.447073 O.3        1 MOL1        -0.5519
      91    H43     25.025274   17.337338   23.671544 H          1 MOL1         0.3769
      92    C27     24.842064   19.685990   22.593946 C.3        1 MOL1         0.1053
      93    H44     23.868169   19.263210   22.878078 H          1 MOL1         0.0783
      94    O23     25.362900   20.467488   23.674488 O.3        1 MOL1        -0.5519
      95    H45     25.715395   19.811510   24.318058 H          1 MOL1         0.3769
      96    C28     24.633187   20.577571   21.337325 C.3        1 MOL1         0.1018
      97    H46     25.482509   21.265155   21.226848 H          1 MOL1         0.0783
      98    C29     24.469391   19.776678   20.016794 C.3        1 MOL1         0.1043
      99    H47     23.448645   19.380604   19.980130 H          1 MOL1         0.0783
     100    O24     25.421421   18.685495   19.956965 O.3        1 MOL1        -0.3740
     101    C30     24.687633   20.671423   18.778165 C.3        1 MOL1         0.0138
     102    H48     25.730595   21.014800   18.758353 H          1 MOL1         0.0794
     103    H49     24.045873   21.559180   18.857487 H          1 MOL1         0.0794
     104    O25     24.374809   19.951189   17.584742 O.3        1 MOL1        -0.5486
     105    H50     24.905136   19.124640   17.616616 H          1 MOL1         0.3769
     106    C31     21.356174   14.235957   22.015366 C.3        1 MOL1         0.2972
     107    H51     20.895203   13.280661   22.296148 H          1 MOL1         0.0751
     108    O26     20.408331   15.119578   21.382084 O.3        1 MOL1        -0.3740
     109    C32     21.935029   14.941018   23.266831 C.3        1 MOL1         0.1003
     110    H52     22.679850   14.263068   23.703669 H          1 MOL1         0.0783
     111    O27     20.912763   15.208736   24.240696 O.3        1 MOL1        -0.5519
     112    H53     20.159526   14.601313   24.043373 H          1 MOL1         0.3769
     113    C33     22.648161   16.255982   22.876215 C.3        1 MOL1         0.1053
     114    H54     21.886703   16.959587   22.520445 H          1 MOL1         0.0783
     115    O28     23.284622   16.788835   24.039396 O.3        1 MOL1        -0.5519
     116    H55     22.603716   16.715187   24.746228 H          1 MOL1         0.3769
     117    C34     23.672062   16.045305   21.728736 C.3        1 MOL1         0.1018
     118    H56     24.571598   15.558179   22.128381 H          1 MOL1         0.0783
     119    C35     23.082077   15.197458   20.567758 C.3        1 MOL1         0.1043
     120    H57     22.348004   15.808342   20.025709 H          1 MOL1         0.0783
     121    O29     22.448208   14.008405   21.100681 O.3        1 MOL1        -0.3740
     122    C36     24.158612   14.737945   19.563277 C.3        1 MOL1         0.0138
     123    H58     24.887949   14.098572   20.078543 H          1 MOL1         0.0794
     124    H59     24.693163   15.615338   19.175918 H          1 MOL1         0.0794
     125    O30     23.544439   14.030887   18.484300 O.3        1 MOL1        -0.5486
     126    H60     22.983197   13.337811   18.898910 H          1 MOL1         0.3769
     127    N1      20.135547   20.653092   16.576305 N.4        1 MOL1        -0.4857
     128    H1      19.307878   20.899766   17.155499 H          1 MOL1         0.3650
     129    H2      19.817912   20.788863   15.605046 H          1 MOL1         0.3650
     130    C1      20.501488   19.191004   16.790929 C.3        1 MOL1         0.0209
     131    H3      21.293433   18.939984   16.081008 H          1 MOL1         0.0967
     132    H4      19.620691   18.593522   16.540068 H          1 MOL1         0.0967
     133    C2      20.963389   18.826349   18.217413 C.3        1 MOL1        -0.1378
     134    H5      21.139985   17.743718   18.260825 H          1 MOL1         0.0993
     135    H6      21.925096   19.306662   18.418300 H          1 MOL1         0.0993
     136    C3      19.937874   19.233461   19.296855 C.3        1 MOL1        -0.1338
     137    H7      18.960700   18.795126   19.048648 H          1 MOL1         0.0993
     138    H8      19.814411   20.323622   19.288725 H          1 MOL1         0.0993
     139    C4      20.364990   18.789931   20.712678 C.3        1 MOL1        -0.1338
     140    H9      20.575948   17.713239   20.711830 H          1 MOL1         0.0993
     141    H10     21.296749   19.296133   20.999591 H          1 MOL1         0.0993
     142    C5      19.261237   19.100476   21.745533 C.3        1 MOL1        -0.1313
     143    H11     19.061913   20.179598   21.765879 H          1 MOL1         0.0993
     144    H12     18.328673   18.616816   21.430169 H          1 MOL1         0.0993
     145    C6      19.633533   18.625048   23.164723 C.3        1 MOL1        -0.2328
     146    H13     18.856115   18.911522   23.884670 H          1 MOL1         0.1004
     147    H14     20.580849   19.069559   23.497891 H          1 MOL1         0.1004
     148    H15     19.734242   17.533228   23.200246 H          1 MOL1         0.1004
     149    C7      21.314078   21.573141   16.875627 C.3        1 MOL1        -0.0781
     150    H16     22.158025   21.292329   16.241218 H          1 MOL1         0.0978
     151    H17     21.022489   22.605733   16.672291 H          1 MOL1         0.0978
     152    H18     21.594237   21.467298   17.925300 H          1 MOL1         0.0978
@<TRIPOS>BOND
    1     1     2    1
    2     1     3    1
    3     1     4    1
    4     4     5    1
    5     4     6    1
    6     6     7    1
    7     4     8    1
    8     8     9    1
    9     8    10    1
   10    10    11    1
   11     8    12    1
   12    12    13    1
   13    12    14    1
   14    14    15    1
   15     1    16    1
   16    14    16    1
   17    14    17    1
   18    17    18    1
   19    17    19    1
   20    17    20    1
   21    20    21    1
   22    22    23    1
   23    22    24    1
   24    22    25    1
   25    25    26    1
   26    25    27    1
   27    27    28    1
   28    25    29    1
   29    29    30    1
   30    29    31    1
   31    31    32    1
   32     3    33    1
   33    29    33    1
   34    33    34    1
   35    33    35    1
   36    35    36    1
   37    22    37    1
   38    35    37    1
   39    35    38    1
   40    38    39    1
   41    38    40    1
   42    38    41    1
   43    41    42    1
   44    43    44    1
   45    43    45    1
   46    43    46    1
   47    46    47    1
   48    46    48    1
   49    48    49    1
   50    46    50    1
   51    50    51    1
   52    50    52    1
   53    52    53    1
   54    24    54    1
   55    50    54    1
   56    54    55    1
   57    54    56    1
   58    56    57    1
   59    43    58    1
   60    56    58    1
   61    56    59    1
   62    59    60    1
   63    59    61    1
   64    59    62    1
   65    62    63    1
   66    64    65    1
   67    64    66    1
   68    64    67    1
   69    67    68    1
   70    67    69    1
   71    69    70    1
   72    67    71    1
   73    71    72    1
   74    71    73    1
   75    73    74    1
   76    45    75    1
   77    71    75    1
   78    75    76    1
   79    75    77    1
   80    77    78    1
   81    64    79    1
   82    77    79    1
   83    77    80    1
   84    80    81    1
   85    80    82    1
   86    80    83    1
   87    83    84    1
   88    85    86    1
   89    85    87    1
   90    85    88    1
   91    88    89    1
   92    88    90    1
   93    90    91    1
   94    88    92    1
   95    92    93    1
   96    92    94    1
   97    94    95    1
   98    66    96    1
   99    92    96    1
  100    96    97    1
  101    96    98    1
  102    98    99    1
  103    85   100    1
  104    98   100    1
  105    98   101    1
  106   101   102    1
  107   101   103    1
  108   101   104    1
  109   104   105    1
  110   106   107    1
  111    12   108    1
  112   106   108    1
  113   106   109    1
  114   109   110    1
  115   109   111    1
  116   111   112    1
  117   109   113    1
  118   113   114    1
  119   113   115    1
  120   115   116    1
  121    87   117    1
  122   113   117    1
  123   117   118    1
  124   117   119    1
  125   119   120    1
  126   106   121    1
  127   119   121    1
  128   119   122    1
  129   122   123    1
  130   122   124    1
  131   122   125    1
  132   125   126    1
  133   127   128    1
  134   127   129    1
  135   127   130    1
  136   130   131    1
  137   130   132    1
  138   130   133    1
  139   133   134    1
  140   133   135    1
  141   133   136    1
  142   136   137    1
  143   136   138    1
  144   136   139    1
  145   139   140    1
  146   139   141    1
  147   139   142    1
  148   142   143    1
  149   142   144    1
  150   142   145    1
  151   145   146    1
  152   145   147    1
  153   145   148    1
  154   127   149    1
  155   149   150    1
  156   149   151    1
  157   149   152    1
@<TRIPOS>SUBSTRUCTURE
       1 MOL1            1 RESIDUE      1      MOL     
       2 MOL1          152 RESIDUE      1      MOL     
@<SCITEGIC>MOL_PROPERTY
VM2 Rank
SciTegic.value.IntegerValue
6

@<SCITEGIC>MOL_PROPERTY
Conf_Id
SciTegic.value.IntegerValue
14498

@<SCITEGIC>MOL_PROPERTY
Probability
SciTegic.value.DoubleValue
1.35

@<SCITEGIC>MOL_PROPERTY
Sum Probability
SciTegic.value.DoubleValue
9.97

@<SCITEGIC>MOL_PROPERTY
Delta G
SciTegic.value.DoubleValue
0.330

@<SCITEGIC>MOL_PROPERTY
G
SciTegic.value.DoubleValue
595.098

@<SCITEGIC>MOL_PROPERTY
E
SciTegic.value.DoubleValue
391.050

@<SCITEGIC>MOL_PROPERTY
-TS
SciTegic.value.DoubleValue
204.048

@<SCITEGIC>MOL_PROPERTY
U+W
SciTegic.value.DoubleValue
256.914

@<SCITEGIC>MOL_PROPERTY
U
SciTegic.value.DoubleValue
321.929

@<SCITEGIC>MOL_PROPERTY
W
SciTegic.value.DoubleValue
-65.015

@<SCITEGIC>MOL_PROPERTY
W(PB)
SciTegic.value.DoubleValue
-70.990

@<SCITEGIC>MOL_PROPERTY
W(SA)
SciTegic.value.DoubleValue
5.975

@<SCITEGIC>MOL_PROPERTY
Valence
SciTegic.value.DoubleValue
146.397

@<SCITEGIC>MOL_PROPERTY
Coulomb
SciTegic.value.DoubleValue
202.753

@<SCITEGIC>MOL_PROPERTY
VdW
SciTegic.value.DoubleValue
-27.221

@<SCITEGIC>MOL_PROPERTY
VdW6
SciTegic.value.DoubleValue
-181.734

@<SCITEGIC>MOL_PROPERTY
VdW12
SciTegic.value.DoubleValue
154.513

@<SCITEGIC>MOL_PROPERTY
Bond
SciTegic.value.DoubleValue
4.403

@<SCITEGIC>MOL_PROPERTY
Angle
SciTegic.value.DoubleValue
10.297

@<SCITEGIC>MOL_PROPERTY
Pdih
SciTegic.value.DoubleValue
131.697

@<SCITEGIC>MOL_PROPERTY
Idih
SciTegic.value.DoubleValue
0.000

@<SCITEGIC>MOL_PROPERTY
Tether
SciTegic.value.DoubleValue
0.000

@<TRIPOS>MOLECULE
CD_guest-s12_vm2_rndm.mol2 : vm2 host+ligand conformer 7
         152         157           2
SMALL
USER_CHARGES
 
@<TRIPOS>ATOM
       1    C1      16.306208   15.288947   20.705016 C.3        1 MOL1         0.2972
       2    H1      15.274084   15.083657   20.392462 H          1 MOL1         0.0751
       3    O1      16.464191   16.641034   21.171958 O.3        1 MOL1        -0.3740
       4    C2      16.747808   14.331278   21.840746 C.3        1 MOL1         0.1003
       5    H2      16.680453   13.308556   21.447473 H          1 MOL1         0.0783
       6    O2      15.892209   14.447308   22.988981 O.3        1 MOL1        -0.5519
       7    H3      15.861037   15.404594   23.242787 H          1 MOL1         0.3769
       8    C3      18.222102   14.593063   22.237764 C.3        1 MOL1         0.1053
       9    H4      18.279522   15.590572   22.694678 H          1 MOL1         0.0783
      10    O3      18.619526   13.601302   23.191194 O.3        1 MOL1        -0.5519
      11    H5      17.839094   13.491961   23.781399 H          1 MOL1         0.3769
      12    C4      19.151677   14.579403   20.989329 C.3        1 MOL1         0.1018
      13    H6      19.264878   13.551130   20.620670 H          1 MOL1         0.0783
      14    C5      18.589286   15.459287   19.842082 C.3        1 MOL1         0.1043
      15    H7      18.660935   16.513499   20.136313 H          1 MOL1         0.0783
      16    O4      17.208462   15.097496   19.595103 O.3        1 MOL1        -0.3740
      17    C6      19.366598   15.274801   18.521996 C.3        1 MOL1         0.0138
      18    H8      19.220036   14.250795   18.153428 H          1 MOL1         0.0794
      19    H9      20.439853   15.411273   18.708451 H          1 MOL1         0.0794
      20    O5      18.917404   16.227653   17.556041 O.3        1 MOL1        -0.5486
      21    H10     17.943616   16.117479   17.496244 H          1 MOL1         0.3769
      22    C7      14.588728   20.203542   21.772682 C.3        1 MOL1         0.2972
      23    H11     13.941695   21.074943   21.936754 H          1 MOL1         0.0751
      24    O6      15.938479   20.587594   21.441205 O.3        1 MOL1        -0.3740
      25    C8      14.629956   19.317951   23.041366 C.3        1 MOL1         0.1003
      26    H12     13.615487   18.934246   23.211070 H          1 MOL1         0.0783
      27    O7      15.048100   20.075428   24.188008 O.3        1 MOL1        -0.5519
      28    H13     15.426827   20.925993   23.853933 H          1 MOL1         0.3769
      29    C9      15.570530   18.111430   22.823217 C.3        1 MOL1         0.1053
      30    H14     16.592977   18.500654   22.766595 H          1 MOL1         0.0783
      31    O8      15.469325   17.216076   23.934337 O.3        1 MOL1        -0.5519
      32    H15     15.507712   17.795424   24.728159 H          1 MOL1         0.3769
      33    C10     15.259611   17.353786   21.505444 C.3        1 MOL1         0.1018
      34    H16     14.416011   16.674421   21.687057 H          1 MOL1         0.0783
      35    C11     14.947422   18.286991   20.297979 C.3        1 MOL1         0.1043
      36    H17     15.899146   18.689577   19.926316 H          1 MOL1         0.0783
      37    O9      14.085208   19.381873   20.699919 O.3        1 MOL1        -0.3740
      38    C12     14.266680   17.560477   19.116826 C.3        1 MOL1         0.0138
      39    H18     14.957830   16.810794   18.709770 H          1 MOL1         0.0794
      40    H19     14.071553   18.289628   18.319075 H          1 MOL1         0.0794
      41    O10     13.047080   16.936209   19.527453 O.3        1 MOL1        -0.5486
      42    H20     12.482783   17.650372   19.899118 H          1 MOL1         0.3769
      43    C13     18.397266   23.835726   20.745089 C.3        1 MOL1         0.2972
      44    H21     18.826942   24.802777   20.456213 H          1 MOL1         0.0751
      45    O11     19.431407   22.871698   21.043400 O.3        1 MOL1        -0.3740
      46    C14     17.430608   23.999701   21.951344 C.3        1 MOL1         0.1003
      47    H22     16.628213   24.674967   21.626713 H          1 MOL1         0.0783
      48    O12     18.079903   24.574831   23.094470 O.3        1 MOL1        -0.5519
      49    H23     18.746244   23.911751   23.406721 H          1 MOL1         0.3769
      50    C15     16.785051   22.644656   22.322828 C.3        1 MOL1         0.1053
      51    H24     17.577288   21.985951   22.704448 H          1 MOL1         0.0783
      52    O13     15.794745   22.845335   23.336056 O.3        1 MOL1        -0.5519
      53    H25     16.199053   23.480075   23.969562 H          1 MOL1         0.3769
      54    C16     16.147028   21.964942   21.084720 C.3        1 MOL1         0.1018
      55    H26     15.208988   22.470913   20.819625 H          1 MOL1         0.0783
      56    C17     17.088011   21.970283   19.851916 C.3        1 MOL1         0.1043
      57    H27     17.897635   21.259277   20.040283 H          1 MOL1         0.0783
      58    O14     17.618662   23.304421   19.654383 O.3        1 MOL1        -0.3740
      59    C18     16.366230   21.542847   18.555338 C.3        1 MOL1         0.0138
      60    H28     15.755837   22.379853   18.190669 H          1 MOL1         0.0794
      61    H29     15.685027   20.712238   18.779853 H          1 MOL1         0.0794
      62    O15     17.310381   21.132019   17.559601 O.3        1 MOL1        -0.5486
      63    H30     16.797446   20.900819   16.754849 H          1 MOL1         0.3769
      64    C19     23.416567   22.585666   22.235584 C.3        1 MOL1         0.2972
      65    H31     24.423680   22.787785   22.622603 H          1 MOL1         0.0751
      66    O16     23.348259   21.310501   21.570941 O.3        1 MOL1        -0.3740
      67    C20     22.380317   22.611870   23.389473 C.3        1 MOL1         0.1003
      68    H32     22.433147   23.607910   23.848030 H          1 MOL1         0.0783
      69    O17     22.667029   21.618232   24.387210 O.3        1 MOL1        -0.5519
      70    H33     23.590399   21.303272   24.232395 H          1 MOL1         0.3769
      71    C21     20.947616   22.405353   22.848835 C.3        1 MOL1         0.1053
      72    H34     20.881607   21.376614   22.474914 H          1 MOL1         0.0783
      73    O18     20.017259   22.595389   23.918813 O.3        1 MOL1        -0.5519
      74    H35     20.395340   22.080155   24.666785 H          1 MOL1         0.3769
      75    C22     20.630550   23.366385   21.674829 C.3        1 MOL1         0.1018
      76    H36     20.499562   24.382421   22.069933 H          1 MOL1         0.0783
      77    C23     21.761624   23.369773   20.610886 C.3        1 MOL1         0.1043
      78    H37     21.760855   22.401569   20.092831 H          1 MOL1         0.0783
      79    O19     23.032646   23.592238   21.274690 O.3        1 MOL1        -0.3740
      80    C24     21.590595   24.478423   19.552214 C.3        1 MOL1         0.0138
      81    H38     21.605883   25.459592   20.045338 H          1 MOL1         0.0794
      82    H39     20.617339   24.362734   19.057704 H          1 MOL1         0.0794
      83    O20     22.635138   24.386734   18.582054 O.3        1 MOL1        -0.5486
      84    H40     23.476983   24.384032   19.089207 H          1 MOL1         0.3769
      85    C25     25.343183   17.790889   21.075608 C.3        1 MOL1         0.2972
      86    H41     26.003982   16.940165   20.867335 H          1 MOL1         0.0751
      87    O21     23.962147   17.380092   21.195428 O.3        1 MOL1        -0.3740
      88    C26     25.790604   18.554917   22.347853 C.3        1 MOL1         0.1003
      89    H42     26.772754   18.994081   22.128834 H          1 MOL1         0.0783
      90    O22     25.921780   17.688155   23.482780 O.3        1 MOL1        -0.5519
      91    H43     25.014061   17.355391   23.696479 H          1 MOL1         0.3769
      92    C27     24.809252   19.714210   22.643253 C.3        1 MOL1         0.1053
      93    H44     23.839085   19.276216   22.916893 H          1 MOL1         0.0783
      94    O23     25.312558   20.491347   23.735270 O.3        1 MOL1        -0.5519
      95    H45     25.668219   19.833428   24.375053 H          1 MOL1         0.3769
      96    C28     24.596283   20.615542   21.394150 C.3        1 MOL1         0.1018
      97    H46     25.438602   21.313252   21.294235 H          1 MOL1         0.0783
      98    C29     24.448464   19.825230   20.065049 C.3        1 MOL1         0.1043
      99    H47     23.433987   19.413872   20.019812 H          1 MOL1         0.0783
     100    O24     25.417546   18.748995   20.000617 O.3        1 MOL1        -0.3740
     101    C30     24.657516   20.731985   18.833443 C.3        1 MOL1         0.0138
     102    H48     25.687166   21.113780   18.834594 H          1 MOL1         0.0794
     103    H49     23.981073   21.594973   18.900982 H          1 MOL1         0.0794
     104    O25     24.396150   20.001700   17.633516 O.3        1 MOL1        -0.5486
     105    H50     24.945621   19.188607   17.683627 H          1 MOL1         0.3769
     106    C31     21.370905   14.253266   21.971403 C.3        1 MOL1         0.2972
     107    H51     20.908056   13.293582   22.233258 H          1 MOL1         0.0751
     108    O26     20.427871   15.147704   21.345611 O.3        1 MOL1        -0.3740
     109    C32     21.940070   14.938392   23.238030 C.3        1 MOL1         0.1003
     110    H52     22.683739   14.255131   23.668509 H          1 MOL1         0.0783
     111    O27     20.910812   15.187976   24.209376 O.3        1 MOL1        -0.5519
     112    H53     20.161727   14.579828   23.999068 H          1 MOL1         0.3769
     113    C33     22.652177   16.260956   22.872412 C.3        1 MOL1         0.1053
     114    H54     21.891309   16.967744   22.521147 H          1 MOL1         0.0783
     115    O28     23.278772   16.778336   24.047890 O.3        1 MOL1        -0.5519
     116    H55     22.593321   16.691405   24.748805 H          1 MOL1         0.3769
     117    C34     23.684735   16.070921   21.729166 C.3        1 MOL1         0.1018
     118    H56     24.585458   15.585304   22.127958 H          1 MOL1         0.0783
     119    C35     23.108124   15.236114   20.551997 C.3        1 MOL1         0.1043
     120    H57     22.378498   15.852447   20.010063 H          1 MOL1         0.0783
     121    O29     22.470520   14.039475   21.062624 O.3        1 MOL1        -0.3740
     122    C36     24.196097   14.791296   19.553208 C.3        1 MOL1         0.0138
     123    H58     24.921246   14.146922   20.068156 H          1 MOL1         0.0794
     124    H59     24.732935   15.674527   19.182641 H          1 MOL1         0.0794
     125    O30     23.594951   14.096548   18.458996 O.3        1 MOL1        -0.5486
     126    H60     23.029083   13.398641   18.859027 H          1 MOL1         0.3769
     127    N1      20.085450   20.841860   16.641409 N.4        1 MOL1        -0.4857
     128    H1      19.257060   21.054390   17.232808 H          1 MOL1         0.3650
     129    H2      19.756048   20.993979   15.676586 H          1 MOL1         0.3650
     130    C1      20.488698   19.384230   16.816234 C.3        1 MOL1         0.0209
     131    H3      21.285474   19.172616   16.098900 H          1 MOL1         0.0967
     132    H4      19.622794   18.771645   16.550459 H          1 MOL1         0.0967
     133    C2      20.962046   18.993032   18.231944 C.3        1 MOL1        -0.1378
     134    H5      21.171558   17.915362   18.244814 H          1 MOL1         0.0993
     135    H6      21.907779   19.498385   18.447497 H          1 MOL1         0.0993
     136    C3      19.924673   19.338287   19.321053 C.3        1 MOL1        -0.1338
     137    H7      18.958259   18.887040   19.054497 H          1 MOL1         0.0993
     138    H8      19.778175   20.425217   19.348055 H          1 MOL1         0.0993
     139    C4      20.356201   18.857318   20.723460 C.3        1 MOL1        -0.1338
     140    H9      20.586912   17.784797   20.690605 H          1 MOL1         0.0993
     141    H10     21.277711   19.371271   21.028767 H          1 MOL1         0.0993
     142    C5      19.243724   19.117237   21.761219 C.3        1 MOL1        -0.1313
     143    H11     19.021663   20.191067   21.809204 H          1 MOL1         0.0993
     144    H12     18.321885   18.623256   21.430673 H          1 MOL1         0.0993
     145    C6      19.622391   18.612438   23.168516 C.3        1 MOL1        -0.2328
     146    H13     19.740869   17.521918   23.176512 H          1 MOL1         0.1004
     147    H14     18.839633   18.867486   23.894445 H          1 MOL1         0.1004
     148    H15     20.561861   19.064013   23.514256 H          1 MOL1         0.1004
     149    C7      21.245104   21.782663   16.952297 C.3        1 MOL1        -0.0781
     150    H16     22.088808   21.540113   16.302359 H          1 MOL1         0.0978
     151    H17     20.929388   22.814238   16.780939 H          1 MOL1         0.0978
     152    H18     21.540519   21.660474   17.995927 H          1 MOL1         0.0978
@<TRIPOS>BOND
    1     1     2    1
    2     1     3    1
    3     1     4    1
    4     4     5    1
    5     4     6    1
    6     6     7    1
    7     4     8    1
    8     8     9    1
    9     8    10    1
   10    10    11    1
   11     8    12    1
   12    12    13    1
   13    12    14    1
   14    14    15    1
   15     1    16    1
   16    14    16    1
   17    14    17    1
   18    17    18    1
   19    17    19    1
   20    17    20    1
   21    20    21    1
   22    22    23    1
   23    22    24    1
   24    22    25    1
   25    25    26    1
   26    25    27    1
   27    27    28    1
   28    25    29    1
   29    29    30    1
   30    29    31    1
   31    31    32    1
   32     3    33    1
   33    29    33    1
   34    33    34    1
   35    33    35    1
   36    35    36    1
   37    22    37    1
   38    35    37    1
   39    35    38    1
   40    38    39    1
   41    38    40    1
   42    38    41    1
   43    41    42    1
   44    43    44    1
   45    43    45    1
   46    43    46    1
   47    46    47    1
   48    46    48    1
   49    48    49    1
   50    46    50    1
   51    50    51    1
   52    50    52    1
   53    52    53    1
   54    24    54    1
   55    50    54    1
   56    54    55    1
   57    54    56    1
   58    56    57    1
   59    43    58    1
   60    56    58    1
   61    56    59    1
   62    59    60    1
   63    59    61    1
   64    59    62    1
   65    62    63    1
   66    64    65    1
   67    64    66    1
   68    64    67    1
   69    67    68    1
   70    67    69    1
   71    69    70    1
   72    67    71    1
   73    71    72    1
   74    71    73    1
   75    73    74    1
   76    45    75    1
   77    71    75    1
   78    75    76    1
   79    75    77    1
   80    77    78    1
   81    64    79    1
   82    77    79    1
   83    77    80    1
   84    80    81    1
   85    80    82    1
   86    80    83    1
   87    83    84    1
   88    85    86    1
   89    85    87    1
   90    85    88    1
   91    88    89    1
   92    88    90    1
   93    90    91    1
   94    88    92    1
   95    92    93    1
   96    92    94    1
   97    94    95    1
   98    66    96    1
   99    92    96    1
  100    96    97    1
  101    96    98    1
  102    98    99    1
  103    85   100    1
  104    98   100    1
  105    98   101    1
  106   101   102    1
  107   101   103    1
  108   101   104    1
  109   104   105    1
  110   106   107    1
  111    12   108    1
  112   106   108    1
  113   106   109    1
  114   109   110    1
  115   109   111    1
  116   111   112    1
  117   109   113    1
  118   113   114    1
  119   113   115    1
  120   115   116    1
  121    87   117    1
  122   113   117    1
  123   117   118    1
  124   117   119    1
  125   119   120    1
  126   106   121    1
  127   119   121    1
  128   119   122    1
  129   122   123    1
  130   122   124    1
  131   122   125    1
  132   125   126    1
  133   127   128    1
  134   127   129    1
  135   127   130    1
  136   130   131    1
  137   130   132    1
  138   130   133    1
  139   133   134    1
  140   133   135    1
  141   133   136    1
  142   136   137    1
  143   136   138    1
  144   136   139    1
  145   139   140    1
  146   139   141    1
  147   139   142    1
  148   142   143    1
  149   142   144    1
  150   142   145    1
  151   145   146    1
  152   145   147    1
  153   145   148    1
  154   127   149    1
  155   149   150    1
  156   149   151    1
  157   149   152    1
@<TRIPOS>SUBSTRUCTURE
       1 MOL1            1 RESIDUE      1      MOL     
       2 MOL1          152 RESIDUE      1      MOL     
@<SCITEGIC>MOL_PROPERTY
VM2 Rank
SciTegic.value.IntegerValue
7

@<SCITEGIC>MOL_PROPERTY
Conf_Id
SciTegic.value.IntegerValue
24692

@<SCITEGIC>MOL_PROPERTY
Probability
SciTegic.value.DoubleValue
1.30

@<SCITEGIC>MOL_PROPERTY
Sum Probability
SciTegic.value.DoubleValue
11.27

@<SCITEGIC>MOL_PROPERTY
Delta G
SciTegic.value.DoubleValue
0.357

@<SCITEGIC>MOL_PROPERTY
G
SciTegic.value.DoubleValue
595.125

@<SCITEGIC>MOL_PROPERTY
E
SciTegic.value.DoubleValue
391.012

@<SCITEGIC>MOL_PROPERTY
-TS
SciTegic.value.DoubleValue
204.113

@<SCITEGIC>MOL_PROPERTY
U+W
SciTegic.value.DoubleValue
256.875

@<SCITEGIC>MOL_PROPERTY
U
SciTegic.value.DoubleValue
320.024

@<SCITEGIC>MOL_PROPERTY
W
SciTegic.value.DoubleValue
-63.148

@<SCITEGIC>MOL_PROPERTY
W(PB)
SciTegic.value.DoubleValue
-69.088

@<SCITEGIC>MOL_PROPERTY
W(SA)
SciTegic.value.DoubleValue
5.940

@<SCITEGIC>MOL_PROPERTY
Valence
SciTegic.value.DoubleValue
146.937

@<SCITEGIC>MOL_PROPERTY
Coulomb
SciTegic.value.DoubleValue
200.790

@<SCITEGIC>MOL_PROPERTY
VdW
SciTegic.value.DoubleValue
-27.703

@<SCITEGIC>MOL_PROPERTY
VdW6
SciTegic.value.DoubleValue
-181.890

@<SCITEGIC>MOL_PROPERTY
VdW12
SciTegic.value.DoubleValue
154.187

@<SCITEGIC>MOL_PROPERTY
Bond
SciTegic.value.DoubleValue
4.382

@<SCITEGIC>MOL_PROPERTY
Angle
SciTegic.value.DoubleValue
10.356

@<SCITEGIC>MOL_PROPERTY
Pdih
SciTegic.value.DoubleValue
132.199

@<SCITEGIC>MOL_PROPERTY
Idih
SciTegic.value.DoubleValue
0.000

@<SCITEGIC>MOL_PROPERTY
Tether
SciTegic.value.DoubleValue
0.000

@<TRIPOS>MOLECULE
CD_guest-s12_vm2_rndm.mol2 : vm2 host+ligand conformer 8
         152         157           2
SMALL
USER_CHARGES
 
@<TRIPOS>ATOM
       1    C1      16.182626   15.007318   20.519776 C.3        1 MOL1         0.2972
       2    H1      15.127241   14.907631   20.234784 H          1 MOL1         0.0751
       3    O1      16.533686   16.383443   20.788251 O.3        1 MOL1        -0.3740
       4    C2      16.523677   14.120464   21.745258 C.3        1 MOL1         0.1003
       5    H2      16.396164   13.076530   21.430086 H          1 MOL1         0.0783
       6    O2      15.654715   14.370860   22.858843 O.3        1 MOL1        -0.5519
       7    H3      15.835529   15.296386   23.161032 H          1 MOL1         0.3769
       8    C3      18.004290   14.316192   22.149445 C.3        1 MOL1         0.1053
       9    H4      18.122067   15.344589   22.518879 H          1 MOL1         0.0783
      10    O3      18.329593   13.388193   23.190305 O.3        1 MOL1        -0.5519
      11    H5      17.538490   13.374388   23.775965 H          1 MOL1         0.3769
      12    C4      18.959914   14.127392   20.937061 C.3        1 MOL1         0.1018
      13    H6      19.115466   13.055828   20.753289 H          1 MOL1         0.0783
      14    C5      18.447018   14.786157   19.626740 C.3        1 MOL1         0.1043
      15    H7      18.632351   15.864436   19.685751 H          1 MOL1         0.0783
      16    O4      17.029725   14.539579   19.450192 O.3        1 MOL1        -0.3740
      17    C6      19.184428   14.236993   18.387049 C.3        1 MOL1         0.0138
      18    H8      18.962237   13.167082   18.277616 H          1 MOL1         0.0794
      19    H9      20.267567   14.339141   18.537558 H          1 MOL1         0.0794
      20    O5      18.786312   14.952712   17.216474 O.3        1 MOL1        -0.5486
      21    H10     17.805262   14.906337   17.189114 H          1 MOL1         0.3769
      22    C7      15.041534   20.104631   21.811200 C.3        1 MOL1         0.2972
      23    H11     14.423717   20.955927   22.123782 H          1 MOL1         0.0751
      24    O6      16.298247   20.537100   21.250916 O.3        1 MOL1        -0.3740
      25    C8      15.325614   19.175205   23.018468 C.3        1 MOL1         0.1003
      26    H12     14.354211   18.828103   23.394119 H          1 MOL1         0.0783
      27    O7      16.016713   19.870307   24.069290 O.3        1 MOL1        -0.5519
      28    H13     15.864599   20.835671   23.927048 H          1 MOL1         0.3769
      29    C9      16.144715   17.939017   22.582279 C.3        1 MOL1         0.1053
      30    H14     17.143639   18.282488   22.291807 H          1 MOL1         0.0783
      31    O8      16.251499   17.046132   23.693621 O.3        1 MOL1        -0.5519
      32    H15     16.491770   17.625774   24.451667 H          1 MOL1         0.3769
      33    C10     15.512266   17.224521   21.359930 C.3        1 MOL1         0.1018
      34    H16     14.641456   16.646195   21.696185 H          1 MOL1         0.0783
      35    C11     15.088866   18.221707   20.245158 C.3        1 MOL1         0.1043
      36    H17     15.997775   18.602189   19.760999 H          1 MOL1         0.0783
      37    O9      14.345194   19.327306   20.814063 O.3        1 MOL1        -0.3740
      38    C12     14.212919   17.575380   19.148977 C.3        1 MOL1         0.0138
      39    H18     14.800101   16.806620   18.629176 H          1 MOL1         0.0794
      40    H19     13.950168   18.342354   18.408129 H          1 MOL1         0.0794
      41    O10     13.029290   16.997283   19.706660 O.3        1 MOL1        -0.5486
      42    H20     12.563075   17.723582   20.177542 H          1 MOL1         0.3769
      43    C13     18.512973   24.051325   20.976036 C.3        1 MOL1         0.2972
      44    H21     18.877477   25.065651   20.767606 H          1 MOL1         0.0751
      45    O11     19.577803   23.171972   21.383740 O.3        1 MOL1        -0.3740
      46    C14     17.440301   24.061343   22.093930 C.3        1 MOL1         0.1003
      47    H22     16.604146   24.676179   21.736144 H          1 MOL1         0.0783
      48    O12     17.952290   24.631915   23.308634 O.3        1 MOL1        -0.5519
      49    H23     18.800015   24.166189   23.523953 H          1 MOL1         0.3769
      50    C15     16.903559   22.631150   22.351211 C.3        1 MOL1         0.1053
      51    H24     17.720731   22.031649   22.775563 H          1 MOL1         0.0783
      52    O13     15.824462   22.711410   23.289008 O.3        1 MOL1        -0.5519
      53    H25     16.114494   23.381131   23.949917 H          1 MOL1         0.3769
      54    C16     16.444243   21.954161   21.027366 C.3        1 MOL1         0.1018
      55    H26     15.500060   22.402185   20.689844 H          1 MOL1         0.0783
      56    C17     17.496719   22.105494   19.897382 C.3        1 MOL1         0.1043
      57    H27     18.361377   21.471886   20.130719 H          1 MOL1         0.0783
      58    O14     17.901956   23.492057   19.795239 O.3        1 MOL1        -0.3740
      59    C18     16.940825   21.680273   18.522759 C.3        1 MOL1         0.0138
      60    H28     16.135871   22.366803   18.228225 H          1 MOL1         0.0794
      61    H29     16.508596   20.674374   18.600927 H          1 MOL1         0.0794
      62    O15     17.987806   21.686059   17.550492 O.3        1 MOL1        -0.5486
      63    H30     18.384447   22.583752   17.583361 H          1 MOL1         0.3769
      64    C19     23.603823   22.875560   22.009857 C.3        1 MOL1         0.2972
      65    H31     24.681120   22.984477   22.189869 H          1 MOL1         0.0751
      66    O16     23.256778   21.531032   21.616167 O.3        1 MOL1        -0.3740
      67    C20     22.806889   23.252345   23.284158 C.3        1 MOL1         0.1003
      68    H32     22.999821   24.313344   23.489807 H          1 MOL1         0.0783
      69    O17     23.220978   22.472126   24.416294 O.3        1 MOL1        -0.5519
      70    H33     23.789646   21.738032   24.075124 H          1 MOL1         0.3769
      71    C21     21.290911   23.080931   23.044870 C.3        1 MOL1         0.1053
      72    H34     21.094333   22.008399   22.943391 H          1 MOL1         0.0783
      73    O18     20.569037   23.586948   24.171291 O.3        1 MOL1        -0.5519
      74    H35     21.043286   23.226916   24.954297 H          1 MOL1         0.3769
      75    C22     20.821031   23.796067   21.751646 C.3        1 MOL1         0.1018
      76    H36     20.695782   24.864277   21.973909 H          1 MOL1         0.0783
      77    C23     21.787880   23.610224   20.545276 C.3        1 MOL1         0.1043
      78    H37     21.639435   22.599125   20.143916 H          1 MOL1         0.0783
      79    O19     23.168333   23.766286   20.962381 O.3        1 MOL1        -0.3740
      80    C24     21.528401   24.604554   19.391869 C.3        1 MOL1         0.0138
      81    H38     20.527923   24.421497   18.978285 H          1 MOL1         0.0794
      82    H39     22.252833   24.411513   18.589296 H          1 MOL1         0.0794
      83    O20     21.635777   25.957825   19.842527 O.3        1 MOL1        -0.5486
      84    H40     22.538626   26.052086   20.220121 H          1 MOL1         0.3769
      85    C25     24.883437   17.774431   20.926647 C.3        1 MOL1         0.2972
      86    H41     25.522968   16.925554   20.652717 H          1 MOL1         0.0751
      87    O21     23.518834   17.356142   21.139536 O.3        1 MOL1        -0.3740
      88    C26     25.430282   18.501153   22.187844 C.3        1 MOL1         0.1003
      89    H42     26.439434   18.853892   21.938149 H          1 MOL1         0.0783
      90    O22     25.515183   17.628887   23.324706 O.3        1 MOL1        -0.5519
      91    H43     24.588198   17.362333   23.550612 H          1 MOL1         0.3769
      92    C27     24.569544   19.739618   22.534293 C.3        1 MOL1         0.1053
      93    H44     23.586064   19.383485   22.871301 H          1 MOL1         0.0783
      94    O23     25.205117   20.474035   23.584560 O.3        1 MOL1        -0.5519
      95    H45     25.519766   19.792260   24.220473 H          1 MOL1         0.3769
      96    C28     24.353966   20.653916   21.300209 C.3        1 MOL1         0.1018
      97    H46     25.275446   21.209427   21.080154 H          1 MOL1         0.0783
      98    C29     23.944804   19.848356   20.040627 C.3        1 MOL1         0.1043
      99    H47     22.925017   19.477804   20.182514 H          1 MOL1         0.0783
     100    O24     24.865187   18.743504   19.857895 O.3        1 MOL1        -0.3740
     101    C30     23.959813   20.691525   18.750584 C.3        1 MOL1         0.0138
     102    H48     24.981192   21.045499   18.556814 H          1 MOL1         0.0794
     103    H49     23.319288   21.572701   18.883653 H          1 MOL1         0.0794
     104    O25     23.484423   19.897803   17.660335 O.3        1 MOL1        -0.5486
     105    H50     24.096500   19.128709   17.615577 H          1 MOL1         0.3769
     106    C31     21.180028   14.034738   21.972305 C.3        1 MOL1         0.2972
     107    H51     20.789642   13.054678   22.275358 H          1 MOL1         0.0751
     108    O26     20.198559   14.796194   21.242212 O.3        1 MOL1        -0.3740
     109    C32     21.631596   14.846471   23.215591 C.3        1 MOL1         0.1003
     110    H52     22.420381   14.266128   23.711782 H          1 MOL1         0.0783
     111    O27     20.551640   15.059482   24.139030 O.3        1 MOL1        -0.5519
     112    H53     19.837486   14.417210   23.909360 H          1 MOL1         0.3769
     113    C33     22.226812   16.207901   22.793371 C.3        1 MOL1         0.1053
     114    H54     21.411104   16.808888   22.372772 H          1 MOL1         0.0783
     115    O28     22.768957   16.861150   23.945632 O.3        1 MOL1        -0.5519
     116    H55     22.073411   16.760976   24.633958 H          1 MOL1         0.3769
     117    C34     23.317068   16.046907   21.706007 C.3        1 MOL1         0.1018
     118    H56     24.228915   15.655360   22.175463 H          1 MOL1         0.0783
     119    C35     22.871359   15.099252   20.557053 C.3        1 MOL1         0.1043
     120    H57     22.100537   15.611576   19.965910 H          1 MOL1         0.0783
     121    O29     22.329448   13.874046   21.113097 O.3        1 MOL1        -0.3740
     122    C36     24.015164   14.714694   19.592344 C.3        1 MOL1         0.0138
     123    H58     24.354481   15.614880   19.063045 H          1 MOL1         0.0794
     124    H59     23.621665   14.021951   18.836410 H          1 MOL1         0.0794
     125    O30     25.107162   14.114843   20.295033 O.3        1 MOL1        -0.5486
     126    H60     24.739138   13.330978   20.760356 H          1 MOL1         0.3769
     127    N1      21.197971   18.533530   16.384211 N.4        1 MOL1        -0.4857
     128    H1      21.844487   19.039985   17.019852 H          1 MOL1         0.3650
     129    H2      21.446441   18.873544   15.443034 H          1 MOL1         0.3650
     130    C1      19.754625   18.902820   16.693362 C.3        1 MOL1         0.0209
     131    H3      19.123856   18.432345   15.935175 H          1 MOL1         0.0967
     132    H4      19.663146   19.986677   16.581489 H          1 MOL1         0.0967
     133    C2      19.249797   18.499780   18.095083 C.3        1 MOL1        -0.1378
     134    H5      18.219326   18.860280   18.206417 H          1 MOL1         0.0993
     135    H6      19.205462   17.408520   18.168233 H          1 MOL1         0.0993
     136    C3      20.126058   19.068104   19.232376 C.3        1 MOL1        -0.1338
     137    H7      20.235898   20.153051   19.094479 H          1 MOL1         0.0993
     138    H8      21.131188   18.631709   19.173778 H          1 MOL1         0.0993
     139    C4      19.526758   18.779354   20.626250 C.3        1 MOL1        -0.1338
     140    H9      18.493157   19.144809   20.658249 H          1 MOL1         0.0993
     141    H10     19.487381   17.696254   20.804265 H          1 MOL1         0.0993
     142    C5      20.345778   19.459360   21.742277 C.3        1 MOL1        -0.1313
     143    H11     21.364171   19.051628   21.758940 H          1 MOL1         0.0993
     144    H12     20.437906   20.528599   21.517278 H          1 MOL1         0.0993
     145    C6      19.704554   19.278897   23.133619 C.3        1 MOL1        -0.2328
     146    H13     19.569913   18.216045   23.375189 H          1 MOL1         0.1004
     147    H14     18.724198   19.769571   23.182712 H          1 MOL1         0.1004
     148    H15     20.338970   19.722753   23.911680 H          1 MOL1         0.1004
     149    C7      21.415842   17.026628   16.470138 C.3        1 MOL1        -0.0781
     150    H16     22.449581   16.798287   16.202337 H          1 MOL1         0.0978
     151    H17     21.215351   16.691171   17.489680 H          1 MOL1         0.0978
     152    H18     20.733436   16.525333   15.779953 H          1 MOL1         0.0978
@<TRIPOS>BOND
    1     1     2    1
    2     1     3    1
    3     1     4    1
    4     4     5    1
    5     4     6    1
    6     6     7    1
    7     4     8    1
    8     8     9    1
    9     8    10    1
   10    10    11    1
   11     8    12    1
   12    12    13    1
   13    12    14    1
   14    14    15    1
   15     1    16    1
   16    14    16    1
   17    14    17    1
   18    17    18    1
   19    17    19    1
   20    17    20    1
   21    20    21    1
   22    22    23    1
   23    22    24    1
   24    22    25    1
   25    25    26    1
   26    25    27    1
   27    27    28    1
   28    25    29    1
   29    29    30    1
   30    29    31    1
   31    31    32    1
   32     3    33    1
   33    29    33    1
   34    33    34    1
   35    33    35    1
   36    35    36    1
   37    22    37    1
   38    35    37    1
   39    35    38    1
   40    38    39    1
   41    38    40    1
   42    38    41    1
   43    41    42    1
   44    43    44    1
   45    43    45    1
   46    43    46    1
   47    46    47    1
   48    46    48    1
   49    48    49    1
   50    46    50    1
   51    50    51    1
   52    50    52    1
   53    52    53    1
   54    24    54    1
   55    50    54    1
   56    54    55    1
   57    54    56    1
   58    56    57    1
   59    43    58    1
   60    56    58    1
   61    56    59    1
   62    59    60    1
   63    59    61    1
   64    59    62    1
   65    62    63    1
   66    64    65    1
   67    64    66    1
   68    64    67    1
   69    67    68    1
   70    67    69    1
   71    69    70    1
   72    67    71    1
   73    71    72    1
   74    71    73    1
   75    73    74    1
   76    45    75    1
   77    71    75    1
   78    75    76    1
   79    75    77    1
   80    77    78    1
   81    64    79    1
   82    77    79    1
   83    77    80    1
   84    80    81    1
   85    80    82    1
   86    80    83    1
   87    83    84    1
   88    85    86    1
   89    85    87    1
   90    85    88    1
   91    88    89    1
   92    88    90    1
   93    90    91    1
   94    88    92    1
   95    92    93    1
   96    92    94    1
   97    94    95    1
   98    66    96    1
   99    92    96    1
  100    96    97    1
  101    96    98    1
  102    98    99    1
  103    85   100    1
  104    98   100    1
  105    98   101    1
  106   101   102    1
  107   101   103    1
  108   101   104    1
  109   104   105    1
  110   106   107    1
  111    12   108    1
  112   106   108    1
  113   106   109    1
  114   109   110    1
  115   109   111    1
  116   111   112    1
  117   109   113    1
  118   113   114    1
  119   113   115    1
  120   115   116    1
  121    87   117    1
  122   113   117    1
  123   117   118    1
  124   117   119    1
  125   119   120    1
  126   106   121    1
  127   119   121    1
  128   119   122    1
  129   122   123    1
  130   122   124    1
  131   122   125    1
  132   125   126    1
  133   127   128    1
  134   127   129    1
  135   127   130    1
  136   130   131    1
  137   130   132    1
  138   130   133    1
  139   133   134    1
  140   133   135    1
  141   133   136    1
  142   136   137    1
  143   136   138    1
  144   136   139    1
  145   139   140    1
  146   139   141    1
  147   139   142    1
  148   142   143    1
  149   142   144    1
  150   142   145    1
  151   145   146    1
  152   145   147    1
  153   145   148    1
  154   127   149    1
  155   149   150    1
  156   149   151    1
  157   149   152    1
@<TRIPOS>SUBSTRUCTURE
       1 MOL1            1 RESIDUE      1      MOL     
       2 MOL1          152 RESIDUE      1      MOL     
@<SCITEGIC>MOL_PROPERTY
VM2 Rank
SciTegic.value.IntegerValue
8

@<SCITEGIC>MOL_PROPERTY
Conf_Id
SciTegic.value.IntegerValue
24695

@<SCITEGIC>MOL_PROPERTY
Probability
SciTegic.value.DoubleValue
1.05

@<SCITEGIC>MOL_PROPERTY
Sum Probability
SciTegic.value.DoubleValue
12.32

@<SCITEGIC>MOL_PROPERTY
Delta G
SciTegic.value.DoubleValue
0.483

@<SCITEGIC>MOL_PROPERTY
G
SciTegic.value.DoubleValue
595.251

@<SCITEGIC>MOL_PROPERTY
E
SciTegic.value.DoubleValue
390.959

@<SCITEGIC>MOL_PROPERTY
-TS
SciTegic.value.DoubleValue
204.292

@<SCITEGIC>MOL_PROPERTY
U+W
SciTegic.value.DoubleValue
256.822

@<SCITEGIC>MOL_PROPERTY
U
SciTegic.value.DoubleValue
320.253

@<SCITEGIC>MOL_PROPERTY
W
SciTegic.value.DoubleValue
-63.431

@<SCITEGIC>MOL_PROPERTY
W(PB)
SciTegic.value.DoubleValue
-69.423

@<SCITEGIC>MOL_PROPERTY
W(SA)
SciTegic.value.DoubleValue
5.992

@<SCITEGIC>MOL_PROPERTY
Valence
SciTegic.value.DoubleValue
146.129

@<SCITEGIC>MOL_PROPERTY
Coulomb
SciTegic.value.DoubleValue
200.096

@<SCITEGIC>MOL_PROPERTY
VdW
SciTegic.value.DoubleValue
-25.972

@<SCITEGIC>MOL_PROPERTY
VdW6
SciTegic.value.DoubleValue
-180.756

@<SCITEGIC>MOL_PROPERTY
VdW12
SciTegic.value.DoubleValue
154.784

@<SCITEGIC>MOL_PROPERTY
Bond
SciTegic.value.DoubleValue
4.430

@<SCITEGIC>MOL_PROPERTY
Angle
SciTegic.value.DoubleValue
10.311

@<SCITEGIC>MOL_PROPERTY
Pdih
SciTegic.value.DoubleValue
131.387

@<SCITEGIC>MOL_PROPERTY
Idih
SciTegic.value.DoubleValue
0.000

@<SCITEGIC>MOL_PROPERTY
Tether
SciTegic.value.DoubleValue
0.000

