@<TRIPOS>MOLECULE
CD_guest-s10_vm2_rndm.mol2 : vm2 host+ligand conformer 1
         146         151           2
SMALL
USER_CHARGES
 
@<TRIPOS>ATOM
       1    C1      16.370251   15.260138   20.826067 C.3        1 MOL1         0.2972
       2    H1      15.322183   15.122317   20.530147 H          1 MOL1         0.0751
       3    O1      16.632357   16.619419   21.230410 O.3        1 MOL1        -0.3740
       4    C2      16.742635   14.306339   21.991783 C.3        1 MOL1         0.1003
       5    H2      16.567342   13.280373   21.642679 H          1 MOL1         0.0783
       6    O2      15.938987   14.553123   23.153195 O.3        1 MOL1        -0.5519
       7    H3      16.317609   13.968136   23.847626 H          1 MOL1         0.3769
       8    C3      18.239586   14.435167   22.360121 C.3        1 MOL1         0.1053
       9    H4      18.394479   15.428535   22.801747 H          1 MOL1         0.0783
      10    O3      18.584529   13.423233   23.313336 O.3        1 MOL1        -0.5519
      11    H5      19.496681   13.635084   23.633734 H          1 MOL1         0.3769
      12    C4      19.143555   14.316648   21.105772 C.3        1 MOL1         0.1018
      13    H6      19.174026   13.271341   20.769958 H          1 MOL1         0.0783
      14    C5      18.648068   15.199087   19.931169 C.3        1 MOL1         0.1043
      15    H7      18.822811   16.254964   20.174571 H          1 MOL1         0.0783
      16    O4      17.237560   14.954026   19.714401 O.3        1 MOL1        -0.3740
      17    C6      19.381590   14.873784   18.613685 C.3        1 MOL1         0.0138
      18    H8      19.145729   13.844586   18.311520 H          1 MOL1         0.0794
      19    H9      20.465437   14.933088   18.775063 H          1 MOL1         0.0794
      20    O5      18.990067   15.797947   17.597300 O.3        1 MOL1        -0.5486
      21    H10     18.007711   15.777437   17.573906 H          1 MOL1         0.3769
      22    C7      14.787117   20.291639   21.638553 C.3        1 MOL1         0.2972
      23    H11     14.095917   21.133491   21.772376 H          1 MOL1         0.0751
      24    O6      16.109336   20.738160   21.276670 O.3        1 MOL1        -0.3740
      25    C8      14.869330   19.459845   22.942120 C.3        1 MOL1         0.1003
      26    H12     13.862030   19.073940   23.146352 H          1 MOL1         0.0783
      27    O7      15.299533   20.257867   24.052960 O.3        1 MOL1        -0.5519
      28    H13     15.468937   19.606926   24.770361 H          1 MOL1         0.3769
      29    C9      15.812966   18.249783   22.769188 C.3        1 MOL1         0.1053
      30    H14     16.837497   18.628124   22.662663 H          1 MOL1         0.0783
      31    O8      15.715015   17.410090   23.925644 O.3        1 MOL1        -0.5519
      32    H15     15.955639   16.496441   23.636151 H          1 MOL1         0.3769
      33    C10     15.471412   17.428867   21.502410 C.3        1 MOL1         0.1018
      34    H16     14.585835   16.815214   21.716735 H          1 MOL1         0.0783
      35    C11     15.212607   18.319238   20.252303 C.3        1 MOL1         0.1043
      36    H17     16.176083   18.720242   19.910288 H          1 MOL1         0.0783
      37    O9      14.321901   19.412730   20.592428 O.3        1 MOL1        -0.3740
      38    C12     14.582146   17.553997   19.067345 C.3        1 MOL1         0.0138
      39    H18     15.294522   16.800679   18.706355 H          1 MOL1         0.0794
      40    H19     14.409961   18.259293   18.243276 H          1 MOL1         0.0794
      41    O10     13.353928   16.928406   19.449978 O.3        1 MOL1        -0.5486
      42    H20     12.768999   17.647098   19.778420 H          1 MOL1         0.3769
      43    C13     18.405453   24.111869   20.700041 C.3        1 MOL1         0.2972
      44    H21     18.836477   25.087383   20.440598 H          1 MOL1         0.0751
      45    O11     19.426698   23.158265   21.059888 O.3        1 MOL1        -0.3740
      46    C14     17.375241   24.238685   21.853129 C.3        1 MOL1         0.1003
      47    H22     16.553989   24.868701   21.487007 H          1 MOL1         0.0783
      48    O12     17.940665   24.846110   23.020806 O.3        1 MOL1        -0.5519
      49    H23     17.226195   24.802150   23.696279 H          1 MOL1         0.3769
      50    C15     16.787128   22.852931   22.208210 C.3        1 MOL1         0.1053
      51    H24     17.593287   22.237205   22.630447 H          1 MOL1         0.0783
      52    O13     15.744350   23.011992   23.176758 O.3        1 MOL1        -0.5519
      53    H25     15.562251   22.109060   23.538799 H          1 MOL1         0.3769
      54    C16     16.241314   22.133000   20.946246 C.3        1 MOL1         0.1018
      55    H26     15.279944   22.577513   20.655505 H          1 MOL1         0.0783
      56    C17     17.206726   22.209656   19.732687 C.3        1 MOL1         0.1043
      57    H27     18.046924   21.524144   19.901519 H          1 MOL1         0.0783
      58    O14     17.689325   23.568008   19.571078 O.3        1 MOL1        -0.3740
      59    C18     16.508438   21.800332   18.419533 C.3        1 MOL1         0.0138
      60    H28     15.715908   22.524826   18.188904 H          1 MOL1         0.0794
      61    H29     16.035037   20.818290   18.551271 H          1 MOL1         0.0794
      62    O15     17.461434   21.743154   17.356879 O.3        1 MOL1        -0.5486
      63    H30     17.938556   22.602867   17.371742 H          1 MOL1         0.3769
      64    C19     23.356123   22.638242   22.133720 C.3        1 MOL1         0.2972
      65    H31     24.397225   22.731631   22.467204 H          1 MOL1         0.0751
      66    O16     23.110341   21.359537   21.510956 O.3        1 MOL1        -0.3740
      67    C20     22.392072   22.795901   23.336597 C.3        1 MOL1         0.1003
      68    H32     22.574412   23.786217   23.773277 H          1 MOL1         0.0783
      69    O17     22.649520   21.786285   24.328243 O.3        1 MOL1        -0.5519
      70    H33     23.588638   21.504202   24.214697 H          1 MOL1         0.3769
      71    C21     20.915729   22.738578   22.870064 C.3        1 MOL1         0.1053
      72    H34     20.707658   21.716905   22.535664 H          1 MOL1         0.0783
      73    O18     20.047849   23.071476   23.959534 O.3        1 MOL1        -0.5519
      74    H35     19.281985   23.561235   23.575915 H          1 MOL1         0.3769
      75    C22     20.630021   23.669510   21.665111 C.3        1 MOL1         0.1018
      76    H36     20.509046   24.699858   22.025976 H          1 MOL1         0.0783
      77    C23     21.736016   23.604592   20.574391 C.3        1 MOL1         0.1043
      78    H37     21.633706   22.651588   20.038721 H          1 MOL1         0.0783
      79    O19     23.048519   23.677517   21.181317 O.3        1 MOL1        -0.3740
      80    C24     21.634302   24.737331   19.528795 C.3        1 MOL1         0.0138
      81    H38     20.694499   24.626998   18.971815 H          1 MOL1         0.0794
      82    H39     22.455299   24.627017   18.807715 H          1 MOL1         0.0794
      83    O20     21.690278   26.023895   20.151442 O.3        1 MOL1        -0.5486
      84    H40     22.535287   26.050839   20.653354 H          1 MOL1         0.3769
      85    C25     25.046977   17.693861   21.114013 C.3        1 MOL1         0.2972
      86    H41     25.747316   16.882937   20.875713 H          1 MOL1         0.0751
      87    O21     23.756749   17.186934   21.505648 O.3        1 MOL1        -0.3740
      88    C26     25.590248   18.575052   22.269101 C.3        1 MOL1         0.1003
      89    H42     26.549742   18.995303   21.939720 H          1 MOL1         0.0783
      90    O22     25.790373   17.804736   23.467647 O.3        1 MOL1        -0.5519
      91    H43     26.563132   17.219593   23.317198 H          1 MOL1         0.3769
      92    C27     24.627296   19.752775   22.558724 C.3        1 MOL1         0.1053
      93    H44     23.702657   19.331124   22.972191 H          1 MOL1         0.0783
      94    O23     25.238373   20.612270   23.527259 O.3        1 MOL1        -0.5519
      95    H45     25.624338   19.999442   24.193942 H          1 MOL1         0.3769
      96    C28     24.266779   20.533937   21.261620 C.3        1 MOL1         0.1018
      97    H46     25.125527   21.140217   20.943823 H          1 MOL1         0.0783
      98    C29     23.870202   19.585643   20.099845 C.3        1 MOL1         0.1043
      99    H47     22.885624   19.149652   20.315075 H          1 MOL1         0.0783
     100    O24     24.867766   18.544642   19.963461 O.3        1 MOL1        -0.3740
     101    C30     23.787728   20.328279   18.750154 C.3        1 MOL1         0.0138
     102    H48     24.779431   20.723346   18.492080 H          1 MOL1         0.0794
     103    H49     23.103053   21.181077   18.846043 H          1 MOL1         0.0794
     104    O25     23.320567   19.440817   17.732696 O.3        1 MOL1        -0.5486
     105    H50     23.906982   18.653143   17.769418 H          1 MOL1         0.3769
     106    C31     21.457153   13.798315   21.715793 C.3        1 MOL1         0.2972
     107    H51     21.025751   12.791185   21.778472 H          1 MOL1         0.0751
     108    O26     20.447403   14.801496   21.474949 O.3        1 MOL1        -0.3740
     109    C32     22.202662   14.138748   23.029058 C.3        1 MOL1         0.1003
     110    H52     23.026986   13.421975   23.138480 H          1 MOL1         0.0783
     111    O27     21.332626   14.037987   24.164437 O.3        1 MOL1        -0.5519
     112    H53     21.845673   14.432857   24.905048 H          1 MOL1         0.3769
     113    C33     22.807171   15.556876   22.953251 C.3        1 MOL1         0.1053
     114    H54     21.973547   16.265871   22.926716 H          1 MOL1         0.0783
     115    O28     23.618756   15.804121   24.107737 O.3        1 MOL1        -0.5519
     116    H55     24.138416   16.623622   23.922483 H          1 MOL1         0.3769
     117    C34     23.649531   15.760608   21.670325 C.3        1 MOL1         0.1018
     118    H56     24.628954   15.287280   21.820493 H          1 MOL1         0.0783
     119    C35     22.970734   15.193930   20.389135 C.3        1 MOL1         0.1043
     120    H57     22.162545   15.878184   20.099073 H          1 MOL1         0.0783
     121    O29     22.421230   13.875604   20.644582 O.3        1 MOL1        -0.3740
     122    C36     23.932255   15.076232   19.185728 C.3        1 MOL1         0.0138
     123    H58     24.266376   16.080045   18.893116 H          1 MOL1         0.0794
     124    H59     23.381916   14.655400   18.333539 H          1 MOL1         0.0794
     125    O30     25.059400   14.254739   19.503577 O.3        1 MOL1        -0.5486
     126    H60     24.697023   13.381106   19.771973 H          1 MOL1         0.3769
     127    N1      20.248099   20.397246   25.244085 N.4        1 MOL1        -0.5937
     128    H1      19.521862   20.811809   25.832829 H          1 MOL1         0.3684
     129    H2      20.753789   21.189414   24.804668 H          1 MOL1         0.3684
     130    H3      20.919358   19.922381   25.851044 H          1 MOL1         0.3684
     131    C1      19.666894   19.471623   24.210799 C.3        1 MOL1         0.1270
     132    H4      18.971276   20.073788   23.618803 H          1 MOL1         0.0960
     133    C2      18.884046   18.337906   24.895977 C.3        1 MOL1        -0.2382
     134    H5      19.537732   17.738681   25.541637 H          1 MOL1         0.1009
     135    H6      18.428536   17.663572   24.163768 H          1 MOL1         0.1009
     136    H7      18.074002   18.744895   25.513439 H          1 MOL1         0.1009
     137    C3      20.757905   18.911687   23.268704 C.3        1 MOL1        -0.1392
     138    H8      21.448747   19.715018   22.993302 H          1 MOL1         0.0998
     139    H9      21.362187   18.179842   23.818197 H          1 MOL1         0.0998
     140    C4      20.214952   18.278556   21.962207 C.3        1 MOL1        -0.1302
     141    H10     19.539133   17.445563   22.191627 H          1 MOL1         0.0998
     142    H11     21.052643   17.841842   21.402158 H          1 MOL1         0.0998
     143    C5      19.495948   19.300067   21.053007 C.3        1 MOL1        -0.2317
     144    H12     18.622202   19.738176   21.549084 H          1 MOL1         0.1009
     145    H13     20.171311   20.116924   20.765912 H          1 MOL1         0.1009
     146    H14     19.145892   18.817159   20.131307 H          1 MOL1         0.1009
@<TRIPOS>BOND
    1     1     2    1
    2     1     3    1
    3     1     4    1
    4     4     5    1
    5     4     6    1
    6     6     7    1
    7     4     8    1
    8     8     9    1
    9     8    10    1
   10    10    11    1
   11     8    12    1
   12    12    13    1
   13    12    14    1
   14    14    15    1
   15     1    16    1
   16    14    16    1
   17    14    17    1
   18    17    18    1
   19    17    19    1
   20    17    20    1
   21    20    21    1
   22    22    23    1
   23    22    24    1
   24    22    25    1
   25    25    26    1
   26    25    27    1
   27    27    28    1
   28    25    29    1
   29    29    30    1
   30    29    31    1
   31    31    32    1
   32     3    33    1
   33    29    33    1
   34    33    34    1
   35    33    35    1
   36    35    36    1
   37    22    37    1
   38    35    37    1
   39    35    38    1
   40    38    39    1
   41    38    40    1
   42    38    41    1
   43    41    42    1
   44    43    44    1
   45    43    45    1
   46    43    46    1
   47    46    47    1
   48    46    48    1
   49    48    49    1
   50    46    50    1
   51    50    51    1
   52    50    52    1
   53    52    53    1
   54    24    54    1
   55    50    54    1
   56    54    55    1
   57    54    56    1
   58    56    57    1
   59    43    58    1
   60    56    58    1
   61    56    59    1
   62    59    60    1
   63    59    61    1
   64    59    62    1
   65    62    63    1
   66    64    65    1
   67    64    66    1
   68    64    67    1
   69    67    68    1
   70    67    69    1
   71    69    70    1
   72    67    71    1
   73    71    72    1
   74    71    73    1
   75    73    74    1
   76    45    75    1
   77    71    75    1
   78    75    76    1
   79    75    77    1
   80    77    78    1
   81    64    79    1
   82    77    79    1
   83    77    80    1
   84    80    81    1
   85    80    82    1
   86    80    83    1
   87    83    84    1
   88    85    86    1
   89    85    87    1
   90    85    88    1
   91    88    89    1
   92    88    90    1
   93    90    91    1
   94    88    92    1
   95    92    93    1
   96    92    94    1
   97    94    95    1
   98    66    96    1
   99    92    96    1
  100    96    97    1
  101    96    98    1
  102    98    99    1
  103    85   100    1
  104    98   100    1
  105    98   101    1
  106   101   102    1
  107   101   103    1
  108   101   104    1
  109   104   105    1
  110   106   107    1
  111    12   108    1
  112   106   108    1
  113   106   109    1
  114   109   110    1
  115   109   111    1
  116   111   112    1
  117   109   113    1
  118   113   114    1
  119   113   115    1
  120   115   116    1
  121    87   117    1
  122   113   117    1
  123   117   118    1
  124   117   119    1
  125   119   120    1
  126   106   121    1
  127   119   121    1
  128   119   122    1
  129   122   123    1
  130   122   124    1
  131   122   125    1
  132   125   126    1
  133   127   128    1
  134   127   129    1
  135   127   130    1
  136   127   131    1
  137   131   132    1
  138   131   133    1
  139   133   134    1
  140   133   135    1
  141   133   136    1
  142   131   137    1
  143   137   138    1
  144   137   139    1
  145   137   140    1
  146   140   141    1
  147   140   142    1
  148   140   143    1
  149   143   144    1
  150   143   145    1
  151   143   146    1
@<TRIPOS>SUBSTRUCTURE
       1 MOL1            1 RESIDUE      1      MOL     
       2 MOL1          146 RESIDUE      1      MOL     
@<SCITEGIC>MOL_PROPERTY
VM2 Rank
SciTegic.value.IntegerValue
1

@<SCITEGIC>MOL_PROPERTY
Conf_Id
SciTegic.value.IntegerValue
25760

@<SCITEGIC>MOL_PROPERTY
Probability
SciTegic.value.DoubleValue
1.53

@<SCITEGIC>MOL_PROPERTY
Sum Probability
SciTegic.value.DoubleValue
1.53

@<SCITEGIC>MOL_PROPERTY
Delta G
SciTegic.value.DoubleValue
0.000

@<SCITEGIC>MOL_PROPERTY
G
SciTegic.value.DoubleValue
525.190

@<SCITEGIC>MOL_PROPERTY
E
SciTegic.value.DoubleValue
332.847

@<SCITEGIC>MOL_PROPERTY
-TS
SciTegic.value.DoubleValue
192.343

@<SCITEGIC>MOL_PROPERTY
U+W
SciTegic.value.DoubleValue
204.076

@<SCITEGIC>MOL_PROPERTY
U
SciTegic.value.DoubleValue
278.269

@<SCITEGIC>MOL_PROPERTY
W
SciTegic.value.DoubleValue
-74.193

@<SCITEGIC>MOL_PROPERTY
W(PB)
SciTegic.value.DoubleValue
-80.288

@<SCITEGIC>MOL_PROPERTY
W(SA)
SciTegic.value.DoubleValue
6.095

@<SCITEGIC>MOL_PROPERTY
Valence
SciTegic.value.DoubleValue
145.211

@<SCITEGIC>MOL_PROPERTY
Coulomb
SciTegic.value.DoubleValue
156.174

@<SCITEGIC>MOL_PROPERTY
VdW
SciTegic.value.DoubleValue
-23.115

@<SCITEGIC>MOL_PROPERTY
VdW6
SciTegic.value.DoubleValue
-171.677

@<SCITEGIC>MOL_PROPERTY
VdW12
SciTegic.value.DoubleValue
148.562

@<SCITEGIC>MOL_PROPERTY
Bond
SciTegic.value.DoubleValue
4.222

@<SCITEGIC>MOL_PROPERTY
Angle
SciTegic.value.DoubleValue
10.249

@<SCITEGIC>MOL_PROPERTY
Pdih
SciTegic.value.DoubleValue
130.739

@<SCITEGIC>MOL_PROPERTY
Idih
SciTegic.value.DoubleValue
0.000

@<SCITEGIC>MOL_PROPERTY
Tether
SciTegic.value.DoubleValue
0.000

