@<TRIPOS>MOLECULE
CD_guest-s9_vm2_rndm.mol2 : vm2 host+ligand conformer 1
         146         151           2
SMALL
USER_CHARGES
 
@<TRIPOS>ATOM
       1    C1      16.380987   15.325443   21.911692 C.3        1 MOL1         0.2972
       2    H1      15.338877   15.178484   22.223368 H          1 MOL1         0.0751
       3    O1      16.559974   16.580384   21.225846 O.3        1 MOL1        -0.3740
       4    C2      17.324936   15.277577   23.140924 C.3        1 MOL1         0.1003
       5    H2      17.200372   14.289992   23.603967 H          1 MOL1         0.0783
       6    O2      17.000128   16.292335   24.104659 O.3        1 MOL1        -0.5519
       7    H3      16.090558   16.615330   23.894928 H          1 MOL1         0.3769
       8    C3      18.801316   15.423581   22.707536 C.3        1 MOL1         0.1053
       9    H4      18.938414   16.445005   22.329906 H          1 MOL1         0.0783
      10    O3      19.638038   15.213233   23.848238 O.3        1 MOL1        -0.5519
      11    H5      19.228068   15.758402   24.557590 H          1 MOL1         0.3769
      12    C4      19.173390   14.434546   21.572019 C.3        1 MOL1         0.1018
      13    H6      19.274995   13.425415   21.992868 H          1 MOL1         0.0783
      14    C5      18.111989   14.418709   20.437188 C.3        1 MOL1         0.1043
      15    H7      18.181253   15.360618   19.878395 H          1 MOL1         0.0783
      16    O4      16.789068   14.272993   21.012776 O.3        1 MOL1        -0.3740
      17    C6      18.314296   13.257073   19.443058 C.3        1 MOL1         0.0138
      18    H8      18.187042   12.300749   19.967939 H          1 MOL1         0.0794
      19    H9      19.336640   13.290436   19.045228 H          1 MOL1         0.0794
      20    O5      17.378840   13.371672   18.369567 O.3        1 MOL1        -0.5486
      21    H10     16.490492   13.427534   18.786426 H          1 MOL1         0.3769
      22    C7      14.678586   20.184871   20.625424 C.3        1 MOL1         0.2972
      23    H11     14.033511   21.035222   20.369199 H          1 MOL1         0.0751
      24    O6      16.036334   20.606614   20.881390 O.3        1 MOL1        -0.3740
      25    C8      14.123830   19.401298   21.845039 C.3        1 MOL1         0.1003
      26    H12     13.152657   18.987728   21.543177 H          1 MOL1         0.0783
      27    O7      13.927534   20.243259   22.990229 O.3        1 MOL1        -0.5519
      28    H13     14.825174   20.545241   23.279968 H          1 MOL1         0.3769
      29    C9      15.054870   18.215908   22.197379 C.3        1 MOL1         0.1053
      30    H14     16.004407   18.628698   22.565916 H          1 MOL1         0.0783
      31    O8      14.437382   17.430321   23.223144 O.3        1 MOL1        -0.5519
      32    H15     14.032465   18.084926   23.836819 H          1 MOL1         0.3769
      33    C10     15.364821   17.337996   20.952076 C.3        1 MOL1         0.1018
      34    H16     14.511177   16.681042   20.737814 H          1 MOL1         0.0783
      35    C11     15.681579   18.170949   19.681745 C.3        1 MOL1         0.1043
      36    H17     16.687313   18.591489   19.788947 H          1 MOL1         0.0783
      37    O9      14.719606   19.244146   19.531017 O.3        1 MOL1        -0.3740
      38    C12     15.652170   17.306516   18.402737 C.3        1 MOL1         0.0138
      39    H18     14.618313   16.999348   18.195449 H          1 MOL1         0.0794
      40    H19     16.242619   16.395010   18.568517 H          1 MOL1         0.0794
      41    O10     16.192188   18.039324   17.300584 O.3        1 MOL1        -0.5486
      42    H20     15.666196   18.868412   17.241657 H          1 MOL1         0.3769
      43    C13     18.460968   23.775604   21.935113 C.3        1 MOL1         0.2972
      44    H21     18.891292   24.727792   22.270313 H          1 MOL1         0.0751
      45    O11     19.441433   22.949882   21.273754 O.3        1 MOL1        -0.3740
      46    C14     17.875062   22.992275   23.137902 C.3        1 MOL1         0.1003
      47    H22     17.086660   23.617173   23.577437 H          1 MOL1         0.0783
      48    O12     18.872965   22.722128   24.135764 O.3        1 MOL1        -0.5519
      49    H23     19.621102   23.346653   23.975629 H          1 MOL1         0.3769
      50    C15     17.234885   21.666832   22.666737 C.3        1 MOL1         0.1053
      51    H24     18.040554   21.014566   22.303734 H          1 MOL1         0.0783
      52    O13     16.580107   21.051045   23.779514 O.3        1 MOL1        -0.5519
      53    H25     17.237325   21.102827   24.510171 H          1 MOL1         0.3769
      54    C16     16.232872   21.890109   21.504335 C.3        1 MOL1         0.1018
      55    H26     15.298874   22.299311   21.911454 H          1 MOL1         0.0783
      56    C17     16.793147   22.837759   20.406029 C.3        1 MOL1         0.1043
      57    H27     17.562096   22.293160   19.842024 H          1 MOL1         0.0783
      58    O14     17.380388   24.017688   21.009220 O.3        1 MOL1        -0.3740
      59    C18     15.720772   23.305654   19.397101 C.3        1 MOL1         0.0138
      60    H28     15.344988   22.434043   18.844947 H          1 MOL1         0.0794
      61    H29     16.191875   23.976538   18.666259 H          1 MOL1         0.0794
      62    O15     14.641916   23.971794   20.059424 O.3        1 MOL1        -0.5486
      63    H30     15.042213   24.722367   20.552457 H          1 MOL1         0.3769
      64    C19     23.565100   22.719611   20.872220 C.3        1 MOL1         0.2972
      65    H31     24.627105   22.882508   20.647846 H          1 MOL1         0.0751
      66    O16     23.295111   21.335451   21.174349 O.3        1 MOL1        -0.3740
      67    C20     23.094139   23.620282   22.046032 C.3        1 MOL1         0.1003
      68    H32     23.228385   24.660567   21.721854 H          1 MOL1         0.0783
      69    O17     23.865689   23.407777   23.237655 O.3        1 MOL1        -0.5519
      70    H33     23.698088   22.475507   23.527611 H          1 MOL1         0.3769
      71    C21     21.588416   23.406165   22.335405 C.3        1 MOL1         0.1053
      72    H34     21.458582   22.386067   22.723689 H          1 MOL1         0.0783
      73    O18     21.174667   24.358700   23.321529 O.3        1 MOL1        -0.5519
      74    H35     21.923167   24.405025   23.959556 H          1 MOL1         0.3769
      75    C22     20.735190   23.542374   21.041567 C.3        1 MOL1         0.1018
      76    H36     20.645778   24.600627   20.761967 H          1 MOL1         0.0783
      77    C23     21.346895   22.760299   19.850158 C.3        1 MOL1         0.1043
      78    H37     21.209313   21.688568   20.034306 H          1 MOL1         0.0783
      79    O19     22.757305   23.071503   19.729454 O.3        1 MOL1        -0.3740
      80    C24     20.667625   23.103966   18.508850 C.3        1 MOL1         0.0138
      81    H38     20.907831   24.139565   18.233190 H          1 MOL1         0.0794
      82    H39     19.578037   23.032985   18.624663 H          1 MOL1         0.0794
      83    O20     21.106598   22.195028   17.497154 O.3        1 MOL1        -0.5486
      84    H40     22.088373   22.239690   17.495173 H          1 MOL1         0.3769
      85    C25     24.930079   17.734401   22.262405 C.3        1 MOL1         0.2972
      86    H41     25.529855   16.881715   22.605902 H          1 MOL1         0.0751
      87    O21     23.757101   17.310064   21.539917 O.3        1 MOL1        -0.3740
      88    C26     24.487872   18.609100   23.462880 C.3        1 MOL1         0.1003
      89    H42     25.398903   19.002521   23.932443 H          1 MOL1         0.0783
      90    O22     23.747708   17.849733   24.432234 O.3        1 MOL1        -0.5519
      91    H43     23.829430   16.897137   24.182937 H          1 MOL1         0.3769
      92    C27     23.639577   19.805032   22.975355 C.3        1 MOL1         0.1053
      93    H44     22.693704   19.404716   22.588576 H          1 MOL1         0.0783
      94    O23     23.376210   20.674469   24.080671 O.3        1 MOL1        -0.5519
      95    H45     23.092655   20.072671   24.805689 H          1 MOL1         0.3769
      96    C28     24.335682   20.587934   21.832192 C.3        1 MOL1         0.1018
      97    H46     25.102797   21.241662   22.267711 H          1 MOL1         0.0783
      98    C29     24.976224   19.663271   20.756454 C.3        1 MOL1         0.1043
      99    H47     24.169337   19.250814   20.136424 H          1 MOL1         0.0783
     100    O24     25.705274   18.578680   21.385641 O.3        1 MOL1        -0.3740
     101    C30     25.950112   20.401723   19.811564 C.3        1 MOL1         0.0138
     102    H48     25.389618   21.145050   19.229479 H          1 MOL1         0.0794
     103    H49     26.367709   19.677851   19.098945 H          1 MOL1         0.0794
     104    O25     27.000325   21.038980   20.544257 O.3        1 MOL1        -0.5486
     105    H50     27.449061   20.330169   21.056975 H          1 MOL1         0.3769
     106    C31     21.472357   13.953676   20.803634 C.3        1 MOL1         0.2972
     107    H51     21.076773   12.971651   20.516438 H          1 MOL1         0.0751
     108    O26     20.408905   14.912049   20.999975 O.3        1 MOL1        -0.3740
     109    C32     22.359643   13.843546   22.073399 C.3        1 MOL1         0.1003
     110    H52     23.200486   13.186361   21.815612 H          1 MOL1         0.0783
     111    O27     21.653536   13.267595   23.181639 O.3        1 MOL1        -0.5519
     112    H53     20.952791   13.917472   23.441617 H          1 MOL1         0.3769
     113    C33     22.943079   15.223677   22.459226 C.3        1 MOL1         0.1053
     114    H54     22.110867   15.866862   22.777967 H          1 MOL1         0.0783
     115    O28     23.866628   15.051693   23.539577 O.3        1 MOL1        -0.5519
     116    H55     23.446531   14.386777   24.131542 H          1 MOL1         0.3769
     117    C34     23.642490   15.904900   21.250616 C.3        1 MOL1         0.1018
     118    H56     24.624038   15.445257   21.073402 H          1 MOL1         0.0783
     119    C35     22.803170   15.818172   19.950279 C.3        1 MOL1         0.1043
     120    H57     21.964774   16.515388   20.045586 H          1 MOL1         0.0783
     121    O29     22.319369   14.465578   19.755082 O.3        1 MOL1        -0.3740
     122    C36     23.610288   16.216363   18.698399 C.3        1 MOL1         0.0138
     123    H58     24.419436   15.490840   18.540447 H          1 MOL1         0.0794
     124    H59     24.069544   17.200384   18.860073 H          1 MOL1         0.0794
     125    O30     22.745258   16.262686   17.562068 O.3        1 MOL1        -0.5486
     126    H60     22.315884   15.380870   17.516626 H          1 MOL1         0.3769
     127    C1      20.118398   18.903895   21.145167 C.3        1 MOL1        -0.2224
     128    H1      20.616703   18.007543   21.537514 H          1 MOL1         0.1052
     129    H2      20.545835   19.777706   21.654284 H          1 MOL1         0.1052
     130    H3      19.054307   18.850144   21.411747 H          1 MOL1         0.1052
     131    C2      20.304794   19.019965   19.616912 C.3        1 MOL1        -0.1209
     132    H4      21.377323   19.044850   19.375615 H          1 MOL1         0.1041
     133    H5      19.879782   19.973252   19.272289 H          1 MOL1         0.1041
     134    C3      19.619948   17.862252   18.860105 C.3        1 MOL1        -0.1274
     135    H6      20.030603   16.898560   19.179114 H          1 MOL1         0.1041
     136    H7      18.556673   17.843489   19.112975 H          1 MOL1         0.1041
     137    C4      19.774331   18.010631   17.334544 C.3        1 MOL1         0.0313
     138    H8      20.808367   17.807320   17.042703 H          1 MOL1         0.1015
     139    H9      19.535292   19.038913   17.050775 H          1 MOL1         0.1015
     140    N1      18.860540   17.102690   16.529236 N.4        1 MOL1        -0.4809
     141    H10     18.926935   17.341636   15.528801 H          1 MOL1         0.3726
     142    H11     17.869054   17.293223   16.781299 H          1 MOL1         0.3726
     143    C5      19.208655   15.634070   16.741484 C.3        1 MOL1        -0.0677
     144    H12     19.082255   15.380010   17.795403 H          1 MOL1         0.1026
     145    H13     18.540586   15.016013   16.137494 H          1 MOL1         0.1026
     146    H14     20.244180   15.464484   16.439714 H          1 MOL1         0.1026
@<TRIPOS>BOND
    1     1     2    1
    2     1     3    1
    3     1     4    1
    4     4     5    1
    5     4     6    1
    6     6     7    1
    7     4     8    1
    8     8     9    1
    9     8    10    1
   10    10    11    1
   11     8    12    1
   12    12    13    1
   13    12    14    1
   14    14    15    1
   15     1    16    1
   16    14    16    1
   17    14    17    1
   18    17    18    1
   19    17    19    1
   20    17    20    1
   21    20    21    1
   22    22    23    1
   23    22    24    1
   24    22    25    1
   25    25    26    1
   26    25    27    1
   27    27    28    1
   28    25    29    1
   29    29    30    1
   30    29    31    1
   31    31    32    1
   32     3    33    1
   33    29    33    1
   34    33    34    1
   35    33    35    1
   36    35    36    1
   37    22    37    1
   38    35    37    1
   39    35    38    1
   40    38    39    1
   41    38    40    1
   42    38    41    1
   43    41    42    1
   44    43    44    1
   45    43    45    1
   46    43    46    1
   47    46    47    1
   48    46    48    1
   49    48    49    1
   50    46    50    1
   51    50    51    1
   52    50    52    1
   53    52    53    1
   54    24    54    1
   55    50    54    1
   56    54    55    1
   57    54    56    1
   58    56    57    1
   59    43    58    1
   60    56    58    1
   61    56    59    1
   62    59    60    1
   63    59    61    1
   64    59    62    1
   65    62    63    1
   66    64    65    1
   67    64    66    1
   68    64    67    1
   69    67    68    1
   70    67    69    1
   71    69    70    1
   72    67    71    1
   73    71    72    1
   74    71    73    1
   75    73    74    1
   76    45    75    1
   77    71    75    1
   78    75    76    1
   79    75    77    1
   80    77    78    1
   81    64    79    1
   82    77    79    1
   83    77    80    1
   84    80    81    1
   85    80    82    1
   86    80    83    1
   87    83    84    1
   88    85    86    1
   89    85    87    1
   90    85    88    1
   91    88    89    1
   92    88    90    1
   93    90    91    1
   94    88    92    1
   95    92    93    1
   96    92    94    1
   97    94    95    1
   98    66    96    1
   99    92    96    1
  100    96    97    1
  101    96    98    1
  102    98    99    1
  103    85   100    1
  104    98   100    1
  105    98   101    1
  106   101   102    1
  107   101   103    1
  108   101   104    1
  109   104   105    1
  110   106   107    1
  111    12   108    1
  112   106   108    1
  113   106   109    1
  114   109   110    1
  115   109   111    1
  116   111   112    1
  117   109   113    1
  118   113   114    1
  119   113   115    1
  120   115   116    1
  121    87   117    1
  122   113   117    1
  123   117   118    1
  124   117   119    1
  125   119   120    1
  126   106   121    1
  127   119   121    1
  128   119   122    1
  129   122   123    1
  130   122   124    1
  131   122   125    1
  132   125   126    1
  133   127   128    1
  134   127   129    1
  135   127   130    1
  136   127   131    1
  137   131   132    1
  138   131   133    1
  139   131   134    1
  140   134   135    1
  141   134   136    1
  142   134   137    1
  143   137   138    1
  144   137   139    1
  145   137   140    1
  146   140   141    1
  147   140   142    1
  148   140   143    1
  149   143   144    1
  150   143   145    1
  151   143   146    1
@<TRIPOS>SUBSTRUCTURE
       1 MOL1            1 RESIDUE      1      MOL     
       2 MOL1          146 RESIDUE      1      MOL     
@<SCITEGIC>MOL_PROPERTY
VM2 Rank
SciTegic.value.IntegerValue
1

@<SCITEGIC>MOL_PROPERTY
Conf_Id
SciTegic.value.IntegerValue
25403

@<SCITEGIC>MOL_PROPERTY
Probability
SciTegic.value.DoubleValue
3.27

@<SCITEGIC>MOL_PROPERTY
Sum Probability
SciTegic.value.DoubleValue
3.27

@<SCITEGIC>MOL_PROPERTY
Delta G
SciTegic.value.DoubleValue
0.000

@<SCITEGIC>MOL_PROPERTY
G
SciTegic.value.DoubleValue
576.096

@<SCITEGIC>MOL_PROPERTY
E
SciTegic.value.DoubleValue
383.023

@<SCITEGIC>MOL_PROPERTY
-TS
SciTegic.value.DoubleValue
193.073

@<SCITEGIC>MOL_PROPERTY
U+W
SciTegic.value.DoubleValue
254.252

@<SCITEGIC>MOL_PROPERTY
U
SciTegic.value.DoubleValue
318.890

@<SCITEGIC>MOL_PROPERTY
W
SciTegic.value.DoubleValue
-64.638

@<SCITEGIC>MOL_PROPERTY
W(PB)
SciTegic.value.DoubleValue
-70.669

@<SCITEGIC>MOL_PROPERTY
W(SA)
SciTegic.value.DoubleValue
6.031

@<SCITEGIC>MOL_PROPERTY
Valence
SciTegic.value.DoubleValue
144.404

@<SCITEGIC>MOL_PROPERTY
Coulomb
SciTegic.value.DoubleValue
194.971

@<SCITEGIC>MOL_PROPERTY
VdW
SciTegic.value.DoubleValue
-20.485

@<SCITEGIC>MOL_PROPERTY
VdW6
SciTegic.value.DoubleValue
-169.094

@<SCITEGIC>MOL_PROPERTY
VdW12
SciTegic.value.DoubleValue
148.609

@<SCITEGIC>MOL_PROPERTY
Bond
SciTegic.value.DoubleValue
4.452

@<SCITEGIC>MOL_PROPERTY
Angle
SciTegic.value.DoubleValue
10.742

@<SCITEGIC>MOL_PROPERTY
Pdih
SciTegic.value.DoubleValue
129.211

@<SCITEGIC>MOL_PROPERTY
Idih
SciTegic.value.DoubleValue
0.000

@<SCITEGIC>MOL_PROPERTY
Tether
SciTegic.value.DoubleValue
0.000

