@<TRIPOS>MOLECULE
CD_guest-s16_vm2_rndm.mol2 : vm2 host+ligand conformer 1
         139         145           2
SMALL
USER_CHARGES
 
@<TRIPOS>ATOM
       1    C1      16.254123   15.058796   20.609740 C.3        1 MOL1         0.2972
       2    H1      15.189927   14.948225   20.364527 H          1 MOL1         0.0751
       3    O1      16.605132   16.442225   20.832882 O.3        1 MOL1        -0.3740
       4    C2      16.639428   14.199846   21.842384 C.3        1 MOL1         0.1003
       5    H2      16.465963   13.151965   21.564449 H          1 MOL1         0.0783
       6    O2      15.838686   14.507533   22.992880 O.3        1 MOL1        -0.5519
       7    H3      16.063767   15.435541   23.256362 H          1 MOL1         0.3769
       8    C3      18.142588   14.357260   22.176515 C.3        1 MOL1         0.1053
       9    H4      18.300195   15.380472   22.545783 H          1 MOL1         0.0783
      10    O3      18.476023   13.409957   23.197781 O.3        1 MOL1        -0.5519
      11    H5      17.704095   13.412987   23.809060 H          1 MOL1         0.3769
      12    C4      19.049256   14.153653   20.927644 C.3        1 MOL1         0.1018
      13    H6      19.167824   13.080299   20.728314 H          1 MOL1         0.0783
      14    C5      18.485150   14.835170   19.650398 C.3        1 MOL1         0.1043
      15    H7      18.657493   15.913031   19.722771 H          1 MOL1         0.0783
      16    O4      17.065838   14.574340   19.521053 O.3        1 MOL1        -0.3740
      17    C6      19.177063   14.344579   18.364829 C.3        1 MOL1         0.0138
      18    H8      18.960284   13.278377   18.215352 H          1 MOL1         0.0794
      19    H9      20.264406   14.455408   18.475207 H          1 MOL1         0.0794
      20    O5      18.716945   15.116670   17.253953 O.3        1 MOL1        -0.5486
      21    H10     17.740094   15.003111   17.229381 H          1 MOL1         0.3769
      22    C7      15.051065   20.155118   21.831364 C.3        1 MOL1         0.2972
      23    H11     14.424354   20.991110   22.167022 H          1 MOL1         0.0751
      24    O6      16.227917   20.617645   21.138831 O.3        1 MOL1        -0.3740
      25    C8      15.486107   19.285568   23.040057 C.3        1 MOL1         0.1003
      26    H12     14.568778   18.906630   23.509250 H          1 MOL1         0.0783
      27    O7      16.226616   20.047565   24.007324 O.3        1 MOL1        -0.5519
      28    H13     16.030028   21.000709   23.839665 H          1 MOL1         0.3769
      29    C9      16.323910   18.072206   22.573855 C.3        1 MOL1         0.1053
      30    H14     17.278594   18.448559   22.180747 H          1 MOL1         0.0783
      31    O8      16.563200   17.219294   23.697635 O.3        1 MOL1        -0.5519
      32    H15     16.871420   17.827822   24.406694 H          1 MOL1         0.3769
      33    C10     15.610069   17.284844   21.445513 C.3        1 MOL1         0.1018
      34    H16     14.790785   16.700883   21.885069 H          1 MOL1         0.0783
      35    C11     15.052289   18.217575   20.334236 C.3        1 MOL1         0.1043
      36    H17     15.899207   18.619568   19.762552 H          1 MOL1         0.0783
      37    O9      14.306398   19.307497   20.930681 O.3        1 MOL1        -0.3740
      38    C12     14.118071   17.495544   19.337753 C.3        1 MOL1         0.0138
      39    H18     14.696695   16.742040   18.787113 H          1 MOL1         0.0794
      40    H19     13.752316   18.226208   18.603852 H          1 MOL1         0.0794
      41    O10     13.019026   16.876403   20.012535 O.3        1 MOL1        -0.5486
      42    H20     12.556612   17.593264   20.501302 H          1 MOL1         0.3769
      43    C13     18.463197   24.053597   20.688270 C.3        1 MOL1         0.2972
      44    H21     18.883005   25.041904   20.460263 H          1 MOL1         0.0751
      45    O11     19.499336   23.098214   21.002134 O.3        1 MOL1        -0.3740
      46    C14     17.442275   24.130549   21.853661 C.3        1 MOL1         0.1003
      47    H22     16.607923   24.754381   21.507158 H          1 MOL1         0.0783
      48    O12     18.004618   24.731048   23.029298 O.3        1 MOL1        -0.5519
      49    H23     18.732098   24.133936   23.337870 H          1 MOL1         0.3769
      50    C15     16.880213   22.723989   22.172415 C.3        1 MOL1         0.1053
      51    H24     17.705286   22.106707   22.555132 H          1 MOL1         0.0783
      52    O13     15.864565   22.850604   23.174396 O.3        1 MOL1        -0.5519
      53    H25     16.203490   23.537171   23.793404 H          1 MOL1         0.3769
      54    C16     16.314062   22.037006   20.896092 C.3        1 MOL1         0.1018
      55    H26     15.330177   22.460336   20.653993 H          1 MOL1         0.0783
      56    C17     17.247118   22.192955   19.663375 C.3        1 MOL1         0.1043
      57    H27     18.093807   21.511050   19.794983 H          1 MOL1         0.0783
      58    O14     17.736280   23.553035   19.547551 O.3        1 MOL1        -0.3740
      59    C18     16.554178   21.823582   18.333408 C.3        1 MOL1         0.0138
      60    H28     16.198461   20.786154   18.390385 H          1 MOL1         0.0794
      61    H29     17.294513   21.874239   17.523818 H          1 MOL1         0.0794
      62    O15     15.461247   22.705814   18.062046 O.3        1 MOL1        -0.5486
      63    H30     15.830022   23.616442   18.102267 H          1 MOL1         0.3769
      64    C19     23.450477   22.690188   22.163447 C.3        1 MOL1         0.2972
      65    H31     24.480062   22.821071   22.520781 H          1 MOL1         0.0751
      66    O16     23.263279   21.404774   21.539101 O.3        1 MOL1        -0.3740
      67    C20     22.448472   22.839043   23.338010 C.3        1 MOL1         0.1003
      68    H32     22.569480   23.854993   23.736046 H          1 MOL1         0.0783
      69    O17     22.708534   21.893298   24.387486 O.3        1 MOL1        -0.5519
      70    H33     23.532684   21.404625   24.144756 H          1 MOL1         0.3769
      71    C21     20.990096   22.690797   22.846764 C.3        1 MOL1         0.1053
      72    H34     20.843090   21.649440   22.537568 H          1 MOL1         0.0783
      73    O18     20.107852   22.995339   23.930559 O.3        1 MOL1        -0.5519
      74    H35     20.472188   22.490988   24.693001 H          1 MOL1         0.3769
      75    C22     20.692769   23.607632   21.631418 C.3        1 MOL1         0.1018
      76    H36     20.559740   24.636565   21.991142 H          1 MOL1         0.0783
      77    C23     21.819632   23.565353   20.559885 C.3        1 MOL1         0.1043
      78    H37     21.761742   22.600061   20.038973 H          1 MOL1         0.0783
      79    O19     23.120260   23.702498   21.188575 O.3        1 MOL1        -0.3740
      80    C24     21.690499   24.675542   19.493480 C.3        1 MOL1         0.0138
      81    H38     20.761521   24.522029   18.928359 H          1 MOL1         0.0794
      82    H39     22.523408   24.582277   18.783767 H          1 MOL1         0.0794
      83    O20     21.693005   25.973605   20.094712 O.3        1 MOL1        -0.5486
      84    H40     22.530520   26.038861   20.605544 H          1 MOL1         0.3769
      85    C25     25.087543   17.737868   21.009465 C.3        1 MOL1         0.2972
      86    H41     25.750617   16.890916   20.790752 H          1 MOL1         0.0751
      87    O21     23.712381   17.312168   21.126374 O.3        1 MOL1        -0.3740
      88    C26     25.536795   18.484235   22.295062 C.3        1 MOL1         0.1003
      89    H42     26.539970   18.883081   22.095424 H          1 MOL1         0.0783
      90    O22     25.609615   17.616039   23.435160 O.3        1 MOL1        -0.5519
      91    H43     24.682924   17.326538   23.631039 H          1 MOL1         0.3769
      92    C27     24.602598   19.683114   22.586791 C.3        1 MOL1         0.1053
      93    H44     23.611678   19.287429   22.850629 H          1 MOL1         0.0783
      94    O23     25.138472   20.430890   23.683503 O.3        1 MOL1        -0.5519
      95    H45     25.456993   19.753525   24.322727 H          1 MOL1         0.3769
      96    C28     24.440703   20.597605   21.342452 C.3        1 MOL1         0.1018
      97    H46     25.338865   21.217671   21.220144 H          1 MOL1         0.0783
      98    C29     24.207770   19.800434   20.030208 C.3        1 MOL1         0.1043
      99    H47     23.180452   19.415258   20.025788 H          1 MOL1         0.0783
     100    O24     25.152984   18.704152   19.939774 O.3        1 MOL1        -0.3740
     101    C30     24.399958   20.689417   18.783916 C.3        1 MOL1         0.0138
     102    H48     25.441523   21.035116   18.743004 H          1 MOL1         0.0794
     103    H49     23.756586   21.575417   18.868533 H          1 MOL1         0.0794
     104    O25     24.069016   19.957667   17.602793 O.3        1 MOL1        -0.5486
     105    H50     24.550171   19.102830   17.668268 H          1 MOL1         0.3769
     106    C31     21.289361   14.032624   21.943424 C.3        1 MOL1         0.2972
     107    H51     20.887876   13.058123   22.249469 H          1 MOL1         0.0751
     108    O26     20.324661   14.784405   21.177994 O.3        1 MOL1        -0.3740
     109    C32     21.732051   14.852534   23.186748 C.3        1 MOL1         0.1003
     110    H52     22.507932   14.264372   23.694072 H          1 MOL1         0.0783
     111    O27     20.652421   15.084164   24.104767 O.3        1 MOL1        -0.5519
     112    H53     19.952274   14.416826   23.907347 H          1 MOL1         0.3769
     113    C33     22.355576   16.203694   22.771186 C.3        1 MOL1         0.1053
     114    H54     21.561646   16.823702   22.334546 H          1 MOL1         0.0783
     115    O28     22.881084   16.841644   23.939147 O.3        1 MOL1        -0.5519
     116    H55     22.159689   16.763720   24.604082 H          1 MOL1         0.3769
     117    C34     23.469620   16.016081   21.710693 C.3        1 MOL1         0.1018
     118    H56     24.363899   15.615716   22.205948 H          1 MOL1         0.0783
     119    C35     23.036616   15.059497   20.563256 C.3        1 MOL1         0.1043
     120    H57     22.290580   15.573992   19.943577 H          1 MOL1         0.0783
     121    O29     22.458429   13.848738   21.115229 O.3        1 MOL1        -0.3740
     122    C36     24.203266   14.646815   19.638376 C.3        1 MOL1         0.0138
     123    H58     24.581607   15.538642   19.121315 H          1 MOL1         0.0794
     124    H59     23.819662   13.962482   18.869823 H          1 MOL1         0.0794
     125    O30     25.256218   14.022466   20.378760 O.3        1 MOL1        -0.5486
     126    H60     24.852210   13.251278   20.835531 H          1 MOL1         0.3769
     127    C1      20.259955   19.637468   20.571903 C.3        1 MOL1        -0.1693
     128    H1      19.357708   20.026718   21.060938 H          1 MOL1         0.0829
     129    H2      21.132895   19.925522   21.164397 H          1 MOL1         0.0829
     130    C2      20.350168   19.901871   19.033525 C.3        1 MOL1        -0.1768
     131    H3      19.902922   20.831155   18.668270 H          1 MOL1         0.0829
     132    H4      21.356904   19.814596   18.608334 H          1 MOL1         0.0829
     133    C3      19.483017   18.615082   18.880414 C.3        1 MOL1         0.1211
     134    H5      18.404257   18.785889   18.995823 H          1 MOL1         0.0786
     135    C4      20.190556   18.128662   20.181826 C.3        1 MOL1        -0.1768
     136    H6      19.599975   17.502857   20.858070 H          1 MOL1         0.0829
     137    H7      21.164478   17.654769   20.015381 H          1 MOL1         0.0829
     138    O1      19.756709   17.869434   17.715026 O.3        1 MOL1        -0.5515
     139    H8      19.315044   16.990743   17.775981 H          1 MOL1         0.3773
@<TRIPOS>BOND
    1     1     2    1
    2     1     3    1
    3     1     4    1
    4     4     5    1
    5     4     6    1
    6     6     7    1
    7     4     8    1
    8     8     9    1
    9     8    10    1
   10    10    11    1
   11     8    12    1
   12    12    13    1
   13    12    14    1
   14    14    15    1
   15     1    16    1
   16    14    16    1
   17    14    17    1
   18    17    18    1
   19    17    19    1
   20    17    20    1
   21    20    21    1
   22    22    23    1
   23    22    24    1
   24    22    25    1
   25    25    26    1
   26    25    27    1
   27    27    28    1
   28    25    29    1
   29    29    30    1
   30    29    31    1
   31    31    32    1
   32     3    33    1
   33    29    33    1
   34    33    34    1
   35    33    35    1
   36    35    36    1
   37    22    37    1
   38    35    37    1
   39    35    38    1
   40    38    39    1
   41    38    40    1
   42    38    41    1
   43    41    42    1
   44    43    44    1
   45    43    45    1
   46    43    46    1
   47    46    47    1
   48    46    48    1
   49    48    49    1
   50    46    50    1
   51    50    51    1
   52    50    52    1
   53    52    53    1
   54    24    54    1
   55    50    54    1
   56    54    55    1
   57    54    56    1
   58    56    57    1
   59    43    58    1
   60    56    58    1
   61    56    59    1
   62    59    60    1
   63    59    61    1
   64    59    62    1
   65    62    63    1
   66    64    65    1
   67    64    66    1
   68    64    67    1
   69    67    68    1
   70    67    69    1
   71    69    70    1
   72    67    71    1
   73    71    72    1
   74    71    73    1
   75    73    74    1
   76    45    75    1
   77    71    75    1
   78    75    76    1
   79    75    77    1
   80    77    78    1
   81    64    79    1
   82    77    79    1
   83    77    80    1
   84    80    81    1
   85    80    82    1
   86    80    83    1
   87    83    84    1
   88    85    86    1
   89    85    87    1
   90    85    88    1
   91    88    89    1
   92    88    90    1
   93    90    91    1
   94    88    92    1
   95    92    93    1
   96    92    94    1
   97    94    95    1
   98    66    96    1
   99    92    96    1
  100    96    97    1
  101    96    98    1
  102    98    99    1
  103    85   100    1
  104    98   100    1
  105    98   101    1
  106   101   102    1
  107   101   103    1
  108   101   104    1
  109   104   105    1
  110   106   107    1
  111    12   108    1
  112   106   108    1
  113   106   109    1
  114   109   110    1
  115   109   111    1
  116   111   112    1
  117   109   113    1
  118   113   114    1
  119   113   115    1
  120   115   116    1
  121    87   117    1
  122   113   117    1
  123   117   118    1
  124   117   119    1
  125   119   120    1
  126   106   121    1
  127   119   121    1
  128   119   122    1
  129   122   123    1
  130   122   124    1
  131   122   125    1
  132   125   126    1
  133   127   128    1
  134   127   129    1
  135   127   130    1
  136   130   131    1
  137   130   132    1
  138   130   133    1
  139   133   134    1
  140   127   135    1
  141   133   135    1
  142   135   136    1
  143   135   137    1
  144   133   138    1
  145   138   139    1
@<TRIPOS>SUBSTRUCTURE
       1 MOL1            1 RESIDUE      1      MOL     
       2 MOL1          139 RESIDUE      1      MOL     
@<SCITEGIC>MOL_PROPERTY
VM2 Rank
SciTegic.value.IntegerValue
1

@<SCITEGIC>MOL_PROPERTY
Conf_Id
SciTegic.value.IntegerValue
22253

@<SCITEGIC>MOL_PROPERTY
Probability
SciTegic.value.DoubleValue
1.86

@<SCITEGIC>MOL_PROPERTY
Sum Probability
SciTegic.value.DoubleValue
1.86

@<SCITEGIC>MOL_PROPERTY
Delta G
SciTegic.value.DoubleValue
0.000

@<SCITEGIC>MOL_PROPERTY
G
SciTegic.value.DoubleValue
538.069

@<SCITEGIC>MOL_PROPERTY
E
SciTegic.value.DoubleValue
359.010

@<SCITEGIC>MOL_PROPERTY
-TS
SciTegic.value.DoubleValue
179.059

@<SCITEGIC>MOL_PROPERTY
U+W
SciTegic.value.DoubleValue
236.498

@<SCITEGIC>MOL_PROPERTY
U
SciTegic.value.DoubleValue
269.507

@<SCITEGIC>MOL_PROPERTY
W
SciTegic.value.DoubleValue
-33.009

@<SCITEGIC>MOL_PROPERTY
W(PB)
SciTegic.value.DoubleValue
-39.049

@<SCITEGIC>MOL_PROPERTY
W(SA)
SciTegic.value.DoubleValue
6.040

@<SCITEGIC>MOL_PROPERTY
Valence
SciTegic.value.DoubleValue
149.677

@<SCITEGIC>MOL_PROPERTY
Coulomb
SciTegic.value.DoubleValue
136.840

@<SCITEGIC>MOL_PROPERTY
VdW
SciTegic.value.DoubleValue
-17.010

@<SCITEGIC>MOL_PROPERTY
VdW6
SciTegic.value.DoubleValue
-163.943

@<SCITEGIC>MOL_PROPERTY
VdW12
SciTegic.value.DoubleValue
146.933

@<SCITEGIC>MOL_PROPERTY
Bond
SciTegic.value.DoubleValue
4.599

@<SCITEGIC>MOL_PROPERTY
Angle
SciTegic.value.DoubleValue
11.338

@<SCITEGIC>MOL_PROPERTY
Pdih
SciTegic.value.DoubleValue
133.740

@<SCITEGIC>MOL_PROPERTY
Idih
SciTegic.value.DoubleValue
0.000

@<SCITEGIC>MOL_PROPERTY
Tether
SciTegic.value.DoubleValue
0.000

@<TRIPOS>MOLECULE
CD_guest-s16_vm2_rndm.mol2 : vm2 host+ligand conformer 2
         139         145           2
SMALL
USER_CHARGES
 
@<TRIPOS>ATOM
       1    C1      16.361577   15.127248   20.614565 C.3        1 MOL1         0.2972
       2    H1      15.311579   15.000211   20.320953 H          1 MOL1         0.0751
       3    O1      16.682682   16.519281   20.829101 O.3        1 MOL1        -0.3740
       4    C2      16.693229   14.293256   21.881872 C.3        1 MOL1         0.1003
       5    H2      16.536435   13.239290   21.617568 H          1 MOL1         0.0783
       6    O2      15.840411   14.618620   22.989154 O.3        1 MOL1        -0.5519
       7    H3      16.046177   15.554030   23.241703 H          1 MOL1         0.3769
       8    C3      18.179557   14.463952   22.277652 C.3        1 MOL1         0.1053
       9    H4      18.325821   15.501081   22.610932 H          1 MOL1         0.0783
      10    O3      18.479886   13.560381   23.346262 O.3        1 MOL1        -0.5519
      11    H5      17.696215   13.598504   23.940677 H          1 MOL1         0.3769
      12    C4      19.127163   14.205497   21.074890 C.3        1 MOL1         0.1018
      13    H6      19.214504   13.125335   20.896787 H          1 MOL1         0.0783
      14    C5      18.642383   14.885784   19.766112 C.3        1 MOL1         0.1043
      15    H7      18.827757   15.963588   19.838393 H          1 MOL1         0.0783
      16    O4      17.227699   14.636395   19.569939 O.3        1 MOL1        -0.3740
      17    C6      19.392079   14.349659   18.529222 C.3        1 MOL1         0.0138
      18    H8      19.158200   13.284859   18.396693 H          1 MOL1         0.0794
      19    H9      20.474066   14.436465   18.696032 H          1 MOL1         0.0794
      20    O5      19.016848   15.094351   17.369300 O.3        1 MOL1        -0.5486
      21    H10     18.033781   15.102989   17.357597 H          1 MOL1         0.3769
      22    C7      14.992314   20.220185   21.703948 C.3        1 MOL1         0.2972
      23    H11     14.324805   21.037441   22.005708 H          1 MOL1         0.0751
      24    O6      16.170620   20.720195   21.038936 O.3        1 MOL1        -0.3740
      25    C8      15.404184   19.372913   22.939584 C.3        1 MOL1         0.1003
      26    H12     14.477520   18.974981   23.373393 H          1 MOL1         0.0783
      27    O7      16.084084   20.153147   23.935283 O.3        1 MOL1        -0.5519
      28    H13     15.877023   21.101566   23.755144 H          1 MOL1         0.3769
      29    C9      16.288908   18.174290   22.528073 C.3        1 MOL1         0.1053
      30    H14     17.250071   18.568592   22.174917 H          1 MOL1         0.0783
      31    O8      16.498870   17.344669   23.674951 O.3        1 MOL1        -0.5519
      32    H15     16.749519   17.974435   24.388374 H          1 MOL1         0.3769
      33    C10     15.644815   17.354738   21.381751 C.3        1 MOL1         0.1018
      34    H16     14.818477   16.761805   21.795169 H          1 MOL1         0.0783
      35    C11     15.112691   18.261092   20.235888 C.3        1 MOL1         0.1043
      36    H17     15.971929   18.680177   19.696001 H          1 MOL1         0.0783
      37    O9      14.310764   19.336591   20.786964 O.3        1 MOL1        -0.3740
      38    C12     14.242585   17.503158   19.208529 C.3        1 MOL1         0.0138
      39    H18     14.864558   16.758977   18.693626 H          1 MOL1         0.0794
      40    H19     13.891120   18.215412   18.449990 H          1 MOL1         0.0794
      41    O10     13.130878   16.863042   19.841852 O.3        1 MOL1        -0.5486
      42    H20     12.629548   17.573051   20.301374 H          1 MOL1         0.3769
      43    C13     18.435263   24.137768   20.726188 C.3        1 MOL1         0.2972
      44    H21     18.885833   25.122590   20.547454 H          1 MOL1         0.0751
      45    O11     19.441249   23.135115   20.987617 O.3        1 MOL1        -0.3740
      46    C14     17.420266   24.188187   21.896812 C.3        1 MOL1         0.1003
      47    H22     16.608790   24.859529   21.586678 H          1 MOL1         0.0783
      48    O12     18.006751   24.701618   23.101925 O.3        1 MOL1        -0.5519
      49    H23     18.695848   24.048538   23.384601 H          1 MOL1         0.3769
      50    C15     16.808126   22.789386   22.147926 C.3        1 MOL1         0.1053
      51    H24     17.604662   22.136787   22.532217 H          1 MOL1         0.0783
      52    O13     15.769837   22.920098   23.126114 O.3        1 MOL1        -0.5519
      53    H25     16.116739   23.570257   23.779079 H          1 MOL1         0.3769
      54    C16     16.251580   22.149538   20.842918 C.3        1 MOL1         0.1018
      55    H26     15.264350   22.575210   20.619766 H          1 MOL1         0.0783
      56    C17     17.177015   22.364160   19.609007 C.3        1 MOL1         0.1043
      57    H27     18.019686   21.668953   19.679167 H          1 MOL1         0.0783
      58    O14     17.684548   23.721833   19.567468 O.3        1 MOL1        -0.3740
      59    C18     16.466392   22.080221   18.268293 C.3        1 MOL1         0.0138
      60    H28     16.094668   21.046758   18.273283 H          1 MOL1         0.0794
      61    H29     17.202731   22.160706   17.457263 H          1 MOL1         0.0794
      62    O15     15.386888   22.995056   18.054721 O.3        1 MOL1        -0.5486
      63    H30     15.773189   23.895015   18.142414 H          1 MOL1         0.3769
      64    C19     23.374814   22.588262   22.176939 C.3        1 MOL1         0.2972
      65    H31     24.397556   22.694261   22.560603 H          1 MOL1         0.0751
      66    O16     23.197185   21.345140   21.470828 O.3        1 MOL1        -0.3740
      67    C20     22.350571   22.650416   23.339170 C.3        1 MOL1         0.1003
      68    H32     22.465671   23.631114   23.818953 H          1 MOL1         0.0783
      69    O17     22.589478   21.620059   24.312009 O.3        1 MOL1        -0.5519
      70    H33     23.502560   21.277549   24.155469 H          1 MOL1         0.3769
      71    C21     20.904265   22.542831   22.802057 C.3        1 MOL1         0.1053
      72    H34     20.769990   21.531787   22.394709 H          1 MOL1         0.0783
      73    O18     19.993560   22.754674   23.885001 O.3        1 MOL1        -0.5519
      74    H35     20.332939   22.179693   24.607701 H          1 MOL1         0.3769
      75    C22     20.637661   23.564612   21.666644 C.3        1 MOL1         0.1018
      76    H36     20.522210   24.562551   22.109779 H          1 MOL1         0.0783
      77    C23     21.777198   23.586988   20.609363 C.3        1 MOL1         0.1043
      78    H37     21.718569   22.662575   20.020252 H          1 MOL1         0.0783
      79    O19     23.067735   23.665886   21.266215 O.3        1 MOL1        -0.3740
      80    C24     21.675112   24.771821   19.623296 C.3        1 MOL1         0.0138
      81    H38     20.756014   24.665800   19.031652 H          1 MOL1         0.0794
      82    H39     22.520347   24.723123   18.923793 H          1 MOL1         0.0794
      83    O20     21.674614   26.023732   20.315710 O.3        1 MOL1        -0.5486
      84    H40     22.504471   26.047858   20.842333 H          1 MOL1         0.3769
      85    C25     25.077483   17.695646   20.963193 C.3        1 MOL1         0.2972
      86    H41     25.749437   16.861106   20.724574 H          1 MOL1         0.0751
      87    O21     23.729568   17.238091   21.202844 O.3        1 MOL1        -0.3740
      88    C26     25.586827   18.496234   22.191842 C.3        1 MOL1         0.1003
      89    H42     26.562551   18.917264   21.916244 H          1 MOL1         0.0783
      90    O22     25.757226   17.662805   23.347567 O.3        1 MOL1        -0.5519
      91    H43     24.863212   17.305753   23.581243 H          1 MOL1         0.3769
      92    C27     24.634852   19.676491   22.507638 C.3        1 MOL1         0.1053
      93    H44     23.672406   19.258233   22.835130 H          1 MOL1         0.0783
      94    O23     25.205245   20.462938   23.559633 O.3        1 MOL1        -0.5519
      95    H45     25.592743   19.808212   24.184500 H          1 MOL1         0.3769
      96    C28     24.377798   20.549469   21.246323 C.3        1 MOL1         0.1018
      97    H46     25.253717   21.178262   21.038005 H          1 MOL1         0.0783
      98    C29     24.063167   19.694357   19.992597 C.3        1 MOL1         0.1043
      99    H47     23.060066   19.276528   20.117119 H          1 MOL1         0.0783
     100    O24     25.031133   18.624571   19.859054 O.3        1 MOL1        -0.3740
     101    C30     24.078186   20.527147   18.693561 C.3        1 MOL1         0.0138
     102    H48     25.112358   20.806409   18.451571 H          1 MOL1         0.0794
     103    H49     23.510739   21.454030   18.850173 H          1 MOL1         0.0794
     104    O25     23.490711   19.779807   17.626333 O.3        1 MOL1        -0.5486
     105    H50     23.985246   18.932356   17.577330 H          1 MOL1         0.3769
     106    C31     21.379416   13.947072   22.023948 C.3        1 MOL1         0.2972
     107    H51     20.954309   12.972033   22.294950 H          1 MOL1         0.0751
     108    O26     20.403935   14.796497   21.386526 O.3        1 MOL1        -0.3740
     109    C32     21.935913   14.663510   23.281656 C.3        1 MOL1         0.1003
     110    H52     22.738760   14.032414   23.684609 H          1 MOL1         0.0783
     111    O27     20.928216   14.837928   24.290297 O.3        1 MOL1        -0.5519
     112    H53     20.101732   14.410675   23.956636 H          1 MOL1         0.3769
     113    C33     22.547113   16.032105   22.906224 C.3        1 MOL1         0.1053
     114    H54     21.727662   16.683072   22.579652 H          1 MOL1         0.0783
     115    O28     23.174848   16.593178   24.062775 O.3        1 MOL1        -0.5519
     116    H55     22.515015   16.472931   24.782873 H          1 MOL1         0.3769
     117    C34     23.566076   15.912138   21.743555 C.3        1 MOL1         0.1018
     118    H56     24.508238   15.510856   22.139888 H          1 MOL1         0.0783
     119    C35     23.050594   15.011376   20.583865 C.3        1 MOL1         0.1043
     120    H57     22.278067   15.567414   20.036003 H          1 MOL1         0.0783
     121    O29     22.483112   13.782566   21.107774 O.3        1 MOL1        -0.3740
     122    C36     24.151733   14.629475   19.570042 C.3        1 MOL1         0.0138
     123    H58     24.513113   15.540355   19.074592 H          1 MOL1         0.0794
     124    H59     23.710919   13.989212   18.794226 H          1 MOL1         0.0794
     125    O30     25.236513   13.954756   20.213700 O.3        1 MOL1        -0.5486
     126    H60     24.847487   13.168447   20.657565 H          1 MOL1         0.3769
     127    C1      20.191149   18.339270   20.949375 C.3        1 MOL1        -0.1693
     128    H1      21.011491   18.636889   21.615720 H          1 MOL1         0.0829
     129    H2      19.691529   17.462587   21.375668 H          1 MOL1         0.0829
     130    C2      20.570686   18.264202   19.432713 C.3        1 MOL1        -0.1768
     131    H3      21.582483   17.918485   19.199647 H          1 MOL1         0.0829
     132    H4      19.863445   17.712392   18.801676 H          1 MOL1         0.0829
     133    C3      20.347494   19.807991   19.442071 C.3        1 MOL1         0.1211
     134    H5      21.192914   20.387669   19.832015 H          1 MOL1         0.0786
     135    C4      19.256190   19.510715   20.512609 C.3        1 MOL1        -0.1768
     136    H6      19.084873   20.292952   21.259122 H          1 MOL1         0.0829
     137    H7      18.290964   19.198084   20.097760 H          1 MOL1         0.0829
     138    O1      19.892802   20.358051   18.228632 O.3        1 MOL1        -0.5515
     139    H8      20.643724   20.305194   17.600355 H          1 MOL1         0.3773
@<TRIPOS>BOND
    1     1     2    1
    2     1     3    1
    3     1     4    1
    4     4     5    1
    5     4     6    1
    6     6     7    1
    7     4     8    1
    8     8     9    1
    9     8    10    1
   10    10    11    1
   11     8    12    1
   12    12    13    1
   13    12    14    1
   14    14    15    1
   15     1    16    1
   16    14    16    1
   17    14    17    1
   18    17    18    1
   19    17    19    1
   20    17    20    1
   21    20    21    1
   22    22    23    1
   23    22    24    1
   24    22    25    1
   25    25    26    1
   26    25    27    1
   27    27    28    1
   28    25    29    1
   29    29    30    1
   30    29    31    1
   31    31    32    1
   32     3    33    1
   33    29    33    1
   34    33    34    1
   35    33    35    1
   36    35    36    1
   37    22    37    1
   38    35    37    1
   39    35    38    1
   40    38    39    1
   41    38    40    1
   42    38    41    1
   43    41    42    1
   44    43    44    1
   45    43    45    1
   46    43    46    1
   47    46    47    1
   48    46    48    1
   49    48    49    1
   50    46    50    1
   51    50    51    1
   52    50    52    1
   53    52    53    1
   54    24    54    1
   55    50    54    1
   56    54    55    1
   57    54    56    1
   58    56    57    1
   59    43    58    1
   60    56    58    1
   61    56    59    1
   62    59    60    1
   63    59    61    1
   64    59    62    1
   65    62    63    1
   66    64    65    1
   67    64    66    1
   68    64    67    1
   69    67    68    1
   70    67    69    1
   71    69    70    1
   72    67    71    1
   73    71    72    1
   74    71    73    1
   75    73    74    1
   76    45    75    1
   77    71    75    1
   78    75    76    1
   79    75    77    1
   80    77    78    1
   81    64    79    1
   82    77    79    1
   83    77    80    1
   84    80    81    1
   85    80    82    1
   86    80    83    1
   87    83    84    1
   88    85    86    1
   89    85    87    1
   90    85    88    1
   91    88    89    1
   92    88    90    1
   93    90    91    1
   94    88    92    1
   95    92    93    1
   96    92    94    1
   97    94    95    1
   98    66    96    1
   99    92    96    1
  100    96    97    1
  101    96    98    1
  102    98    99    1
  103    85   100    1
  104    98   100    1
  105    98   101    1
  106   101   102    1
  107   101   103    1
  108   101   104    1
  109   104   105    1
  110   106   107    1
  111    12   108    1
  112   106   108    1
  113   106   109    1
  114   109   110    1
  115   109   111    1
  116   111   112    1
  117   109   113    1
  118   113   114    1
  119   113   115    1
  120   115   116    1
  121    87   117    1
  122   113   117    1
  123   117   118    1
  124   117   119    1
  125   119   120    1
  126   106   121    1
  127   119   121    1
  128   119   122    1
  129   122   123    1
  130   122   124    1
  131   122   125    1
  132   125   126    1
  133   127   128    1
  134   127   129    1
  135   127   130    1
  136   130   131    1
  137   130   132    1
  138   130   133    1
  139   133   134    1
  140   127   135    1
  141   133   135    1
  142   135   136    1
  143   135   137    1
  144   133   138    1
  145   138   139    1
@<TRIPOS>SUBSTRUCTURE
       1 MOL1            1 RESIDUE      1      MOL     
       2 MOL1          139 RESIDUE      1      MOL     
@<SCITEGIC>MOL_PROPERTY
VM2 Rank
SciTegic.value.IntegerValue
2

@<SCITEGIC>MOL_PROPERTY
Conf_Id
SciTegic.value.IntegerValue
11644

@<SCITEGIC>MOL_PROPERTY
Probability
SciTegic.value.DoubleValue
1.55

@<SCITEGIC>MOL_PROPERTY
Sum Probability
SciTegic.value.DoubleValue
3.41

@<SCITEGIC>MOL_PROPERTY
Delta G
SciTegic.value.DoubleValue
0.109

@<SCITEGIC>MOL_PROPERTY
G
SciTegic.value.DoubleValue
538.177

@<SCITEGIC>MOL_PROPERTY
E
SciTegic.value.DoubleValue
359.261

@<SCITEGIC>MOL_PROPERTY
-TS
SciTegic.value.DoubleValue
178.916

@<SCITEGIC>MOL_PROPERTY
U+W
SciTegic.value.DoubleValue
236.750

@<SCITEGIC>MOL_PROPERTY
U
SciTegic.value.DoubleValue
267.962

@<SCITEGIC>MOL_PROPERTY
W
SciTegic.value.DoubleValue
-31.212

@<SCITEGIC>MOL_PROPERTY
W(PB)
SciTegic.value.DoubleValue
-37.248

@<SCITEGIC>MOL_PROPERTY
W(SA)
SciTegic.value.DoubleValue
6.035

@<SCITEGIC>MOL_PROPERTY
Valence
SciTegic.value.DoubleValue
149.503

@<SCITEGIC>MOL_PROPERTY
Coulomb
SciTegic.value.DoubleValue
137.280

@<SCITEGIC>MOL_PROPERTY
VdW
SciTegic.value.DoubleValue
-18.821

@<SCITEGIC>MOL_PROPERTY
VdW6
SciTegic.value.DoubleValue
-166.410

@<SCITEGIC>MOL_PROPERTY
VdW12
SciTegic.value.DoubleValue
147.589

@<SCITEGIC>MOL_PROPERTY
Bond
SciTegic.value.DoubleValue
4.574

@<SCITEGIC>MOL_PROPERTY
Angle
SciTegic.value.DoubleValue
11.547

@<SCITEGIC>MOL_PROPERTY
Pdih
SciTegic.value.DoubleValue
133.381

@<SCITEGIC>MOL_PROPERTY
Idih
SciTegic.value.DoubleValue
0.000

@<SCITEGIC>MOL_PROPERTY
Tether
SciTegic.value.DoubleValue
0.000

@<TRIPOS>MOLECULE
CD_guest-s16_vm2_rndm.mol2 : vm2 host+ligand conformer 3
         139         145           2
SMALL
USER_CHARGES
 
@<TRIPOS>ATOM
       1    C1      16.254855   15.181653   20.620230 C.3        1 MOL1         0.2972
       2    H1      15.200946   15.042154   20.347058 H          1 MOL1         0.0751
       3    O1      16.555822   16.572514   20.859355 O.3        1 MOL1        -0.3740
       4    C2      16.630843   14.326483   21.860908 C.3        1 MOL1         0.1003
       5    H2      16.490009   13.275472   21.576592 H          1 MOL1         0.0783
       6    O2      15.794685   14.611098   22.992046 O.3        1 MOL1        -0.5519
       7    H3      15.987392   15.544884   23.260449 H          1 MOL1         0.3769
       8    C3      18.121348   14.519379   22.230919 C.3        1 MOL1         0.1053
       9    H4      18.255340   15.554583   22.575258 H          1 MOL1         0.0783
      10    O3      18.456883   13.608106   23.283203 O.3        1 MOL1        -0.5519
      11    H5      17.679238   13.618817   23.886637 H          1 MOL1         0.3769
      12    C4      19.049077   14.296231   21.005349 C.3        1 MOL1         0.1018
      13    H6      19.149195   13.220467   20.808940 H          1 MOL1         0.0783
      14    C5      18.523173   14.993042   19.719617 C.3        1 MOL1         0.1043
      15    H7      18.692869   16.072368   19.817287 H          1 MOL1         0.0783
      16    O4      17.106099   14.737039   19.543703 O.3        1 MOL1        -0.3740
      17    C6      19.249992   14.518730   18.441885 C.3        1 MOL1         0.0138
      18    H8      20.324793   14.718401   18.545980 H          1 MOL1         0.0794
      19    H9      18.885762   15.108256   17.589876 H          1 MOL1         0.0794
      20    O5      19.027682   13.124425   18.211312 O.3        1 MOL1        -0.5486
      21    H10     18.052160   13.001228   18.210542 H          1 MOL1         0.3769
      22    C7      14.881839   20.243706   21.830201 C.3        1 MOL1         0.2972
      23    H11     14.230456   21.064849   22.155819 H          1 MOL1         0.0751
      24    O6      16.051356   20.736182   21.144238 O.3        1 MOL1        -0.3740
      25    C8      15.310680   19.375842   23.045054 C.3        1 MOL1         0.1003
      26    H12     14.390535   18.972181   23.487411 H          1 MOL1         0.0783
      27    O7      16.009392   20.137106   24.042301 O.3        1 MOL1        -0.5519
      28    H13     15.820350   21.090583   23.869084 H          1 MOL1         0.3769
      29    C9      16.185785   18.183908   22.596831 C.3        1 MOL1         0.1053
      30    H14     17.140647   18.583830   22.230678 H          1 MOL1         0.0783
      31    O8      16.417312   17.335078   23.725360 O.3        1 MOL1        -0.5519
      32    H15     16.680947   17.952568   24.444861 H          1 MOL1         0.3769
      33    C10     15.519907   17.382810   21.449916 C.3        1 MOL1         0.1018
      34    H16     14.709971   16.772031   21.869811 H          1 MOL1         0.0783
      35    C11     14.955002   18.305271   20.331975 C.3        1 MOL1         0.1043
      36    H17     15.798811   18.729046   19.771589 H          1 MOL1         0.0783
      37    O9      14.172646   19.377828   20.917377 O.3        1 MOL1        -0.3740
      38    C12     14.054666   17.560968   19.321009 C.3        1 MOL1         0.0138
      39    H18     14.659898   16.820379   18.781489 H          1 MOL1         0.0794
      40    H19     13.684938   18.282057   18.579742 H          1 MOL1         0.0794
      41    O10     12.958675   16.917786   19.978054 O.3        1 MOL1        -0.5486
      42    H20     12.472990   17.624105   20.459539 H          1 MOL1         0.3769
      43    C13     18.357627   24.127465   20.802270 C.3        1 MOL1         0.2972
      44    H21     18.806259   25.112201   20.618121 H          1 MOL1         0.0751
      45    O11     19.369033   23.114147   20.998785 O.3        1 MOL1        -0.3740
      46    C14     17.390131   24.168775   22.014377 C.3        1 MOL1         0.1003
      47    H22     16.580487   24.861280   21.749230 H          1 MOL1         0.0783
      48    O12     18.029122   24.646716   23.207070 O.3        1 MOL1        -0.5519
      49    H23     18.705250   23.967854   23.458408 H          1 MOL1         0.3769
      50    C15     16.758856   22.777709   22.263222 C.3        1 MOL1         0.1053
      51    H24     17.552754   22.105166   22.617459 H          1 MOL1         0.0783
      52    O13     15.747703   22.914815   23.268178 O.3        1 MOL1        -0.5519
      53    H25     16.125455   23.543563   23.925003 H          1 MOL1         0.3769
      54    C16     16.155500   22.165283   20.966444 C.3        1 MOL1         0.1018
      55    H26     15.174073   22.615704   20.766792 H          1 MOL1         0.0783
      56    C17     17.057775   22.370602   19.718365 C.3        1 MOL1         0.1043
      57    H27     17.897414   21.670987   19.772828 H          1 MOL1         0.0783
      58    O14     17.556586   23.730067   19.671014 O.3        1 MOL1        -0.3740
      59    C18     16.307674   22.093442   18.401497 C.3        1 MOL1         0.0138
      60    H28     15.503494   22.830776   18.275878 H          1 MOL1         0.0794
      61    H29     15.846456   21.097658   18.451597 H          1 MOL1         0.0794
      62    O15     17.224911   22.153052   17.307509 O.3        1 MOL1        -0.5486
      63    H30     17.631542   23.048267   17.341939 H          1 MOL1         0.3769
      64    C19     23.333268   22.553488   22.116921 C.3        1 MOL1         0.2972
      65    H31     24.354407   22.672770   22.500864 H          1 MOL1         0.0751
      66    O16     23.191739   21.336788   21.356366 O.3        1 MOL1        -0.3740
      67    C20     22.313708   22.544130   23.286795 C.3        1 MOL1         0.1003
      68    H32     22.419269   23.503348   23.810251 H          1 MOL1         0.0783
      69    O17     22.569407   21.475930   24.212986 O.3        1 MOL1        -0.5519
      70    H33     23.505825   21.192337   24.079477 H          1 MOL1         0.3769
      71    C21     20.863930   22.443656   22.758399 C.3        1 MOL1         0.1053
      72    H34     20.733387   21.450533   22.306562 H          1 MOL1         0.0783
      73    O18     19.963346   22.600200   23.859283 O.3        1 MOL1        -0.5519
      74    H35     20.314159   21.994804   24.551102 H          1 MOL1         0.3769
      75    C22     20.578173   23.513234   21.673869 C.3        1 MOL1         0.1018
      76    H36     20.472815   24.491531   22.160951 H          1 MOL1         0.0783
      77    C23     21.703447   23.580280   20.604086 C.3        1 MOL1         0.1043
      78    H37     21.653569   22.670648   19.990933 H          1 MOL1         0.0783
      79    O19     22.996723   23.660648   21.253305 O.3        1 MOL1        -0.3740
      80    C24     21.576004   24.792022   19.654016 C.3        1 MOL1         0.0138
      81    H38     20.654941   24.689019   19.065073 H          1 MOL1         0.0794
      82    H39     22.417624   24.777650   18.948531 H          1 MOL1         0.0794
      83    O20     21.559531   26.022995   20.382771 O.3        1 MOL1        -0.5486
      84    H40     22.393149   26.046040   20.903497 H          1 MOL1         0.3769
      85    C25     25.082457   17.713979   20.839873 C.3        1 MOL1         0.2972
      86    H41     25.735987   16.862627   20.609469 H          1 MOL1         0.0751
      87    O21     23.719643   17.291320   21.061358 O.3        1 MOL1        -0.3740
      88    C26     25.598241   18.503654   22.070905 C.3        1 MOL1         0.1003
      89    H42     26.573260   18.925927   21.794469 H          1 MOL1         0.0783
      90    O22     25.773006   17.663080   23.220663 O.3        1 MOL1        -0.5519
      91    H43     24.876378   17.322438   23.467697 H          1 MOL1         0.3769
      92    C27     24.646979   19.681297   22.393299 C.3        1 MOL1         0.1053
      93    H44     23.682586   19.261375   22.712457 H          1 MOL1         0.0783
      94    O23     25.216352   20.452362   23.457693 O.3        1 MOL1        -0.5519
      95    H45     25.610797   19.788566   24.068629 H          1 MOL1         0.3769
      96    C28     24.395964   20.571004   21.141186 C.3        1 MOL1         0.1018
      97    H46     25.260779   21.227454   20.976844 H          1 MOL1         0.0783
      98    C29     24.140552   19.743778   19.850057 C.3        1 MOL1         0.1043
      99    H47     23.121385   19.345929   19.899594 H          1 MOL1         0.0783
     100    O24     25.079655   18.644757   19.738282 O.3        1 MOL1        -0.3740
     101    C30     24.246992   20.591119   18.563158 C.3        1 MOL1         0.0138
     102    H48     23.524095   21.416198   18.616568 H          1 MOL1         0.0794
     103    H49     23.970205   19.965047   17.704413 H          1 MOL1         0.0794
     104    O25     25.571385   21.105265   18.395296 O.3        1 MOL1        -0.5486
     105    H50     26.172250   20.327902   18.434742 H          1 MOL1         0.3769
     106    C31     21.302712   14.055266   21.942674 C.3        1 MOL1         0.2972
     107    H51     20.873630   13.087149   22.231578 H          1 MOL1         0.0751
     108    O26     20.325427   14.899072   21.300616 O.3        1 MOL1        -0.3740
     109    C32     21.871438   14.785455   23.187387 C.3        1 MOL1         0.1003
     110    H52     22.657428   14.142367   23.604383 H          1 MOL1         0.0783
     111    O27     20.864347   15.000665   24.188968 O.3        1 MOL1        -0.5519
     112    H53     20.058083   14.504764   23.904805 H          1 MOL1         0.3769
     113    C33     22.517170   16.134282   22.794756 C.3        1 MOL1         0.1053
     114    H54     21.715512   16.809847   22.474356 H          1 MOL1         0.0783
     115    O28     23.170222   16.682143   23.943298 O.3        1 MOL1        -0.5519
     116    H55     22.508597   16.595800   24.666627 H          1 MOL1         0.3769
     117    C34     23.522431   15.978284   21.623407 C.3        1 MOL1         0.1018
     118    H56     24.456679   15.554783   22.015366 H          1 MOL1         0.0783
     119    C35     22.975441   15.079240   20.478201 C.3        1 MOL1         0.1043
     120    H57     22.204174   15.643515   19.936991 H          1 MOL1         0.0783
     121    O29     22.398099   13.865446   21.022121 O.3        1 MOL1        -0.3740
     122    C36     24.055964   14.670329   19.452640 C.3        1 MOL1         0.0138
     123    H58     24.426506   15.571052   18.945398 H          1 MOL1         0.0794
     124    H59     23.593289   14.031902   18.688054 H          1 MOL1         0.0794
     125    O30     25.137614   13.981575   20.086790 O.3        1 MOL1        -0.5486
     126    H60     24.740567   13.205816   20.542017 H          1 MOL1         0.3769
     127    C1      20.372947   18.470161   20.407499 C.3        1 MOL1        -0.1693
     128    H1      21.088372   19.122214   20.924529 H          1 MOL1         0.0829
     129    H2      20.301810   17.524749   20.952184 H          1 MOL1         0.0829
     130    C2      20.567778   18.358112   18.860638 C.3        1 MOL1        -0.1768
     131    H3      21.594493   18.430366   18.489274 H          1 MOL1         0.0829
     132    H4      20.093320   17.484225   18.400135 H          1 MOL1         0.0829
     133    C3      19.718663   19.662391   18.774337 C.3        1 MOL1         0.1211
     134    H5      20.299245   20.583419   18.919508 H          1 MOL1         0.0786
     135    C4      19.009850   19.147023   20.063538 C.3        1 MOL1        -0.1768
     136    H6      18.675752   19.905718   20.777572 H          1 MOL1         0.0829
     137    H7      18.186000   18.450757   19.874413 H          1 MOL1         0.0829
     138    O1      18.906892   19.748906   17.624686 O.3        1 MOL1        -0.5515
     139    H8      18.372761   20.577084   17.669546 H          1 MOL1         0.3773
@<TRIPOS>BOND
    1     1     2    1
    2     1     3    1
    3     1     4    1
    4     4     5    1
    5     4     6    1
    6     6     7    1
    7     4     8    1
    8     8     9    1
    9     8    10    1
   10    10    11    1
   11     8    12    1
   12    12    13    1
   13    12    14    1
   14    14    15    1
   15     1    16    1
   16    14    16    1
   17    14    17    1
   18    17    18    1
   19    17    19    1
   20    17    20    1
   21    20    21    1
   22    22    23    1
   23    22    24    1
   24    22    25    1
   25    25    26    1
   26    25    27    1
   27    27    28    1
   28    25    29    1
   29    29    30    1
   30    29    31    1
   31    31    32    1
   32     3    33    1
   33    29    33    1
   34    33    34    1
   35    33    35    1
   36    35    36    1
   37    22    37    1
   38    35    37    1
   39    35    38    1
   40    38    39    1
   41    38    40    1
   42    38    41    1
   43    41    42    1
   44    43    44    1
   45    43    45    1
   46    43    46    1
   47    46    47    1
   48    46    48    1
   49    48    49    1
   50    46    50    1
   51    50    51    1
   52    50    52    1
   53    52    53    1
   54    24    54    1
   55    50    54    1
   56    54    55    1
   57    54    56    1
   58    56    57    1
   59    43    58    1
   60    56    58    1
   61    56    59    1
   62    59    60    1
   63    59    61    1
   64    59    62    1
   65    62    63    1
   66    64    65    1
   67    64    66    1
   68    64    67    1
   69    67    68    1
   70    67    69    1
   71    69    70    1
   72    67    71    1
   73    71    72    1
   74    71    73    1
   75    73    74    1
   76    45    75    1
   77    71    75    1
   78    75    76    1
   79    75    77    1
   80    77    78    1
   81    64    79    1
   82    77    79    1
   83    77    80    1
   84    80    81    1
   85    80    82    1
   86    80    83    1
   87    83    84    1
   88    85    86    1
   89    85    87    1
   90    85    88    1
   91    88    89    1
   92    88    90    1
   93    90    91    1
   94    88    92    1
   95    92    93    1
   96    92    94    1
   97    94    95    1
   98    66    96    1
   99    92    96    1
  100    96    97    1
  101    96    98    1
  102    98    99    1
  103    85   100    1
  104    98   100    1
  105    98   101    1
  106   101   102    1
  107   101   103    1
  108   101   104    1
  109   104   105    1
  110   106   107    1
  111    12   108    1
  112   106   108    1
  113   106   109    1
  114   109   110    1
  115   109   111    1
  116   111   112    1
  117   109   113    1
  118   113   114    1
  119   113   115    1
  120   115   116    1
  121    87   117    1
  122   113   117    1
  123   117   118    1
  124   117   119    1
  125   119   120    1
  126   106   121    1
  127   119   121    1
  128   119   122    1
  129   122   123    1
  130   122   124    1
  131   122   125    1
  132   125   126    1
  133   127   128    1
  134   127   129    1
  135   127   130    1
  136   130   131    1
  137   130   132    1
  138   130   133    1
  139   133   134    1
  140   127   135    1
  141   133   135    1
  142   135   136    1
  143   135   137    1
  144   133   138    1
  145   138   139    1
@<TRIPOS>SUBSTRUCTURE
       1 MOL1            1 RESIDUE      1      MOL     
       2 MOL1          139 RESIDUE      1      MOL     
@<SCITEGIC>MOL_PROPERTY
VM2 Rank
SciTegic.value.IntegerValue
3

@<SCITEGIC>MOL_PROPERTY
Conf_Id
SciTegic.value.IntegerValue
22158

@<SCITEGIC>MOL_PROPERTY
Probability
SciTegic.value.DoubleValue
1.19

@<SCITEGIC>MOL_PROPERTY
Sum Probability
SciTegic.value.DoubleValue
4.60

@<SCITEGIC>MOL_PROPERTY
Delta G
SciTegic.value.DoubleValue
0.265

@<SCITEGIC>MOL_PROPERTY
G
SciTegic.value.DoubleValue
538.334

@<SCITEGIC>MOL_PROPERTY
E
SciTegic.value.DoubleValue
359.057

@<SCITEGIC>MOL_PROPERTY
-TS
SciTegic.value.DoubleValue
179.276

@<SCITEGIC>MOL_PROPERTY
U+W
SciTegic.value.DoubleValue
236.546

@<SCITEGIC>MOL_PROPERTY
U
SciTegic.value.DoubleValue
268.482

@<SCITEGIC>MOL_PROPERTY
W
SciTegic.value.DoubleValue
-31.936

@<SCITEGIC>MOL_PROPERTY
W(PB)
SciTegic.value.DoubleValue
-38.041

@<SCITEGIC>MOL_PROPERTY
W(SA)
SciTegic.value.DoubleValue
6.105

@<SCITEGIC>MOL_PROPERTY
Valence
SciTegic.value.DoubleValue
149.430

@<SCITEGIC>MOL_PROPERTY
Coulomb
SciTegic.value.DoubleValue
135.231

@<SCITEGIC>MOL_PROPERTY
VdW
SciTegic.value.DoubleValue
-16.179

@<SCITEGIC>MOL_PROPERTY
VdW6
SciTegic.value.DoubleValue
-163.413

@<SCITEGIC>MOL_PROPERTY
VdW12
SciTegic.value.DoubleValue
147.234

@<SCITEGIC>MOL_PROPERTY
Bond
SciTegic.value.DoubleValue
4.638

@<SCITEGIC>MOL_PROPERTY
Angle
SciTegic.value.DoubleValue
11.280

@<SCITEGIC>MOL_PROPERTY
Pdih
SciTegic.value.DoubleValue
133.512

@<SCITEGIC>MOL_PROPERTY
Idih
SciTegic.value.DoubleValue
0.000

@<SCITEGIC>MOL_PROPERTY
Tether
SciTegic.value.DoubleValue
0.000

@<TRIPOS>MOLECULE
CD_guest-s16_vm2_rndm.mol2 : vm2 host+ligand conformer 4
         139         145           2
SMALL
USER_CHARGES
 
@<TRIPOS>ATOM
       1    C1      16.308041   15.358326   21.849853 C.3        1 MOL1         0.2972
       2    H1      15.271728   15.208591   22.178816 H          1 MOL1         0.0751
       3    O1      16.459765   16.591321   21.120154 O.3        1 MOL1        -0.3740
       4    C2      17.269915   15.360692   23.068577 C.3        1 MOL1         0.1003
       5    H2      17.163542   14.384965   23.560413 H          1 MOL1         0.0783
       6    O2      16.946436   16.395101   24.011279 O.3        1 MOL1        -0.5519
       7    H3      16.019336   16.680272   23.826636 H          1 MOL1         0.3769
       8    C3      18.740588   15.509970   22.615906 C.3        1 MOL1         0.1053
       9    H4      18.868770   16.517423   22.197135 H          1 MOL1         0.0783
      10    O3      19.589627   15.344339   23.755833 O.3        1 MOL1        -0.5519
      11    H5      19.186224   15.917580   24.446460 H          1 MOL1         0.3769
      12    C4      19.104708   14.476763   21.520738 C.3        1 MOL1         0.1018
      13    H6      19.201499   13.488445   21.988776 H          1 MOL1         0.0783
      14    C5      18.036406   14.412801   20.393531 C.3        1 MOL1         0.1043
      15    H7      18.093930   15.339528   19.807361 H          1 MOL1         0.0783
      16    O4      16.714363   14.282823   20.975864 O.3        1 MOL1        -0.3740
      17    C6      18.240787   13.231412   19.419005 C.3        1 MOL1         0.0138
      18    H8      19.186261   13.373195   18.878807 H          1 MOL1         0.0794
      19    H9      17.434430   13.244876   18.673506 H          1 MOL1         0.0794
      20    O5      18.253449   11.981372   20.114538 O.3        1 MOL1        -0.5486
      21    H10     17.396427   11.923118   20.592755 H          1 MOL1         0.3769
      22    C7      14.631323   20.225412   20.593534 C.3        1 MOL1         0.2972
      23    H11     14.004097   21.094947   20.358281 H          1 MOL1         0.0751
      24    O6      16.002758   20.612409   20.835608 O.3        1 MOL1        -0.3740
      25    C8      14.071575   19.438628   21.808041 C.3        1 MOL1         0.1003
      26    H12     13.090586   19.047041   21.508570 H          1 MOL1         0.0783
      27    O7      13.898354   20.268686   22.965485 O.3        1 MOL1        -0.5519
      28    H13     14.804928   20.538553   23.259028 H          1 MOL1         0.3769
      29    C9      14.982488   18.231836   22.137282 C.3        1 MOL1         0.1053
      30    H14     15.944031   18.621665   22.499421 H          1 MOL1         0.0783
      31    O8      14.356869   17.450401   23.161565 O.3        1 MOL1        -0.5519
      32    H15     13.964244   18.108424   23.779724 H          1 MOL1         0.3769
      33    C10     15.262256   17.358777   20.881040 C.3        1 MOL1         0.1018
      34    H16     14.400802   16.706843   20.683668 H          1 MOL1         0.0783
      35    C11     15.557045   18.192708   19.604752 C.3        1 MOL1         0.1043
      36    H17     16.578809   18.578422   19.667821 H          1 MOL1         0.0783
      37    O9      14.626558   19.297500   19.487611 O.3        1 MOL1        -0.3740
      38    C12     15.461054   17.337991   18.325633 C.3        1 MOL1         0.0138
      39    H18     14.409645   17.087672   18.130390 H          1 MOL1         0.0794
      40    H19     16.006194   16.396641   18.478473 H          1 MOL1         0.0794
      41    O10     16.027818   18.049581   17.225042 O.3        1 MOL1        -0.5486
      42    H20     15.529488   18.894588   17.154850 H          1 MOL1         0.3769
      43    C13     18.455205   23.750723   21.999779 C.3        1 MOL1         0.2972
      44    H21     18.869781   24.695139   22.374818 H          1 MOL1         0.0751
      45    O11     19.453339   22.968502   21.313580 O.3        1 MOL1        -0.3740
      46    C14     17.873880   22.914898   23.169462 C.3        1 MOL1         0.1003
      47    H22     17.082295   23.518548   23.632303 H          1 MOL1         0.0783
      48    O12     18.871621   22.613768   24.158693 O.3        1 MOL1        -0.5519
      49    H23     19.627818   23.230824   24.007006 H          1 MOL1         0.3769
      50    C15     17.236830   21.605255   22.650133 C.3        1 MOL1         0.1053
      51    H24     18.043157   20.966583   22.265121 H          1 MOL1         0.0783
      52    O13     16.582180   20.953519   23.742458 O.3        1 MOL1        -0.5519
      53    H25     17.246110   20.965775   24.468615 H          1 MOL1         0.3769
      54    C16     16.232735   21.872542   21.497944 C.3        1 MOL1         0.1018
      55    H26     15.309132   22.288071   21.921766 H          1 MOL1         0.0783
      56    C17     16.804349   22.848388   20.431197 C.3        1 MOL1         0.1043
      57    H27     17.583151   22.322962   19.862902 H          1 MOL1         0.0783
      58    O14     17.376508   24.013265   21.076678 O.3        1 MOL1        -0.3740
      59    C18     15.743468   23.340612   19.421733 C.3        1 MOL1         0.0138
      60    H28     15.377239   22.482999   18.841855 H          1 MOL1         0.0794
      61    H29     16.222357   24.031870   18.715286 H          1 MOL1         0.0794
      62    O15     14.654367   23.986324   20.087797 O.3        1 MOL1        -0.5486
      63    H30     15.047232   24.722944   20.607099 H          1 MOL1         0.3769
      64    C19     23.563027   22.764102   20.896233 C.3        1 MOL1         0.2972
      65    H31     24.629357   22.917805   20.685841 H          1 MOL1         0.0751
      66    O16     23.266646   21.371724   21.132971 O.3        1 MOL1        -0.3740
      67    C20     23.100014   23.615942   22.107522 C.3        1 MOL1         0.1003
      68    H32     23.229052   24.669015   21.825185 H          1 MOL1         0.0783
      69    O17     23.883256   23.357391   23.281876 O.3        1 MOL1        -0.5519
      70    H33     23.734443   22.408742   23.525081 H          1 MOL1         0.3769
      71    C21     21.595989   23.384466   22.393072 C.3        1 MOL1         0.1053
      72    H34     21.467830   22.342978   22.720505 H          1 MOL1         0.0783
      73    O18     21.184549   24.275780   23.435949 O.3        1 MOL1        -0.5519
      74    H35     21.937050   24.287385   24.070761 H          1 MOL1         0.3769
      75    C22     20.735819   23.598918   21.114772 C.3        1 MOL1         0.1018
      76    H36     20.625510   24.673892   20.919571 H          1 MOL1         0.0783
      77    C23     21.350709   22.921153   19.859622 C.3        1 MOL1         0.1043
      78    H37     21.189664   21.841216   19.946255 H          1 MOL1         0.0783
      79    O19     22.772191   23.193817   19.768941 O.3        1 MOL1        -0.3740
      80    C24     20.694030   23.387085   18.541560 C.3        1 MOL1         0.0138
      81    H38     19.618766   23.166964   18.579377 H          1 MOL1         0.0794
      82    H39     21.119755   22.807721   17.711429 H          1 MOL1         0.0794
      83    O20     20.904800   24.786169   18.329440 O.3        1 MOL1        -0.5486
      84    H40     21.876340   24.926464   18.386285 H          1 MOL1         0.3769
      85    C25     24.909558   17.692251   22.050944 C.3        1 MOL1         0.2972
      86    H41     25.539203   16.844297   22.349878 H          1 MOL1         0.0751
      87    O21     23.703346   17.253744   21.391237 O.3        1 MOL1        -0.3740
      88    C26     24.540040   18.554360   23.286932 C.3        1 MOL1         0.1003
      89    H42     25.479885   18.940542   23.702628 H          1 MOL1         0.0783
      90    O22     23.862328   17.791413   24.297611 O.3        1 MOL1        -0.5519
      91    H43     23.878189   16.845534   24.012166 H          1 MOL1         0.3769
      92    C27     23.670048   19.761396   22.872143 C.3        1 MOL1         0.1053
      93    H44     22.705051   19.369392   22.530706 H          1 MOL1         0.0783
      94    O23     23.471500   20.602390   24.012052 O.3        1 MOL1        -0.5519
      95    H45     23.229640   19.980692   24.735626 H          1 MOL1         0.3769
      96    C28     24.312409   20.565252   21.711742 C.3        1 MOL1         0.1018
      97    H46     25.126850   21.179525   22.118135 H          1 MOL1         0.0783
      98    C29     24.855976   19.648805   20.578116 C.3        1 MOL1         0.1043
      99    H47     23.999060   19.249355   20.019772 H          1 MOL1         0.0783
     100    O24     25.623848   18.552272   21.137282 O.3        1 MOL1        -0.3740
     101    C30     25.759538   20.393142   19.570189 C.3        1 MOL1         0.0138
     102    H48     25.163179   21.154275   19.049693 H          1 MOL1         0.0794
     103    H49     26.108225   19.677738   18.813339 H          1 MOL1         0.0794
     104    O25     26.873983   21.004069   20.226869 O.3        1 MOL1        -0.5486
     105    H50     27.350104   20.280319   20.691786 H          1 MOL1         0.3769
     106    C31     21.371294   13.914709   20.751583 C.3        1 MOL1         0.2972
     107    H51     20.938739   12.937829   20.499720 H          1 MOL1         0.0751
     108    O26     20.343073   14.914632   20.925235 O.3        1 MOL1        -0.3740
     109    C32     22.261861   13.820011   22.020398 C.3        1 MOL1         0.1003
     110    H52     23.084031   13.133499   21.779358 H          1 MOL1         0.0783
     111    O27     21.548220   13.300430   23.151965 O.3        1 MOL1        -0.5519
     112    H53     20.862803   13.975153   23.388716 H          1 MOL1         0.3769
     113    C33     22.881817   15.195111   22.364385 C.3        1 MOL1         0.1053
     114    H54     22.069318   15.864216   22.680722 H          1 MOL1         0.0783
     115    O28     23.816285   15.020588   23.434800 O.3        1 MOL1        -0.5519
     116    H55     23.385203   14.382453   24.048011 H          1 MOL1         0.3769
     117    C34     23.583255   15.838636   21.137354 C.3        1 MOL1         0.1018
     118    H56     24.565813   15.371909   20.986939 H          1 MOL1         0.0783
     119    C35     22.758729   15.702718   19.827059 C.3        1 MOL1         0.1043
     120    H57     21.926877   16.415278   19.869809 H          1 MOL1         0.0783
     121    O29     22.232451   14.359602   19.684265 O.3        1 MOL1        -0.3740
     122    C36     23.588717   16.020919   18.563748 C.3        1 MOL1         0.0138
     123    H58     23.988658   17.040524   18.644704 H          1 MOL1         0.0794
     124    H59     22.924753   15.994636   17.689354 H          1 MOL1         0.0794
     125    O30     24.658033   15.084358   18.402810 O.3        1 MOL1        -0.5486
     126    H60     24.243824   14.192723   18.422055 H          1 MOL1         0.3769
     127    C1      20.595764   19.055444   20.706598 C.3        1 MOL1        -0.1693
     128    H1      20.868715   18.145166   21.256433 H          1 MOL1         0.0829
     129    H2      20.950417   19.926362   21.267446 H          1 MOL1         0.0829
     130    C2      19.105105   19.120488   20.251428 C.3        1 MOL1        -0.1768
     131    H3      18.742312   20.128100   20.016042 H          1 MOL1         0.0829
     132    H4      18.391313   18.634193   20.923977 H          1 MOL1         0.0829
     133    C3      19.565667   18.294570   19.011438 C.3        1 MOL1         0.1211
     134    H5      19.616339   17.211732   19.188167 H          1 MOL1         0.0786
     135    C4      20.930318   19.028637   19.179460 C.3        1 MOL1        -0.1768
     136    H6      20.969019   20.009757   18.693687 H          1 MOL1         0.0829
     137    H7      21.819648   18.465254   18.884925 H          1 MOL1         0.0829
     138    O1      18.904509   18.581478   17.799207 O.3        1 MOL1        -0.5515
     139    H8      17.983768   18.232894   17.837033 H          1 MOL1         0.3773
@<TRIPOS>BOND
    1     1     2    1
    2     1     3    1
    3     1     4    1
    4     4     5    1
    5     4     6    1
    6     6     7    1
    7     4     8    1
    8     8     9    1
    9     8    10    1
   10    10    11    1
   11     8    12    1
   12    12    13    1
   13    12    14    1
   14    14    15    1
   15     1    16    1
   16    14    16    1
   17    14    17    1
   18    17    18    1
   19    17    19    1
   20    17    20    1
   21    20    21    1
   22    22    23    1
   23    22    24    1
   24    22    25    1
   25    25    26    1
   26    25    27    1
   27    27    28    1
   28    25    29    1
   29    29    30    1
   30    29    31    1
   31    31    32    1
   32     3    33    1
   33    29    33    1
   34    33    34    1
   35    33    35    1
   36    35    36    1
   37    22    37    1
   38    35    37    1
   39    35    38    1
   40    38    39    1
   41    38    40    1
   42    38    41    1
   43    41    42    1
   44    43    44    1
   45    43    45    1
   46    43    46    1
   47    46    47    1
   48    46    48    1
   49    48    49    1
   50    46    50    1
   51    50    51    1
   52    50    52    1
   53    52    53    1
   54    24    54    1
   55    50    54    1
   56    54    55    1
   57    54    56    1
   58    56    57    1
   59    43    58    1
   60    56    58    1
   61    56    59    1
   62    59    60    1
   63    59    61    1
   64    59    62    1
   65    62    63    1
   66    64    65    1
   67    64    66    1
   68    64    67    1
   69    67    68    1
   70    67    69    1
   71    69    70    1
   72    67    71    1
   73    71    72    1
   74    71    73    1
   75    73    74    1
   76    45    75    1
   77    71    75    1
   78    75    76    1
   79    75    77    1
   80    77    78    1
   81    64    79    1
   82    77    79    1
   83    77    80    1
   84    80    81    1
   85    80    82    1
   86    80    83    1
   87    83    84    1
   88    85    86    1
   89    85    87    1
   90    85    88    1
   91    88    89    1
   92    88    90    1
   93    90    91    1
   94    88    92    1
   95    92    93    1
   96    92    94    1
   97    94    95    1
   98    66    96    1
   99    92    96    1
  100    96    97    1
  101    96    98    1
  102    98    99    1
  103    85   100    1
  104    98   100    1
  105    98   101    1
  106   101   102    1
  107   101   103    1
  108   101   104    1
  109   104   105    1
  110   106   107    1
  111    12   108    1
  112   106   108    1
  113   106   109    1
  114   109   110    1
  115   109   111    1
  116   111   112    1
  117   109   113    1
  118   113   114    1
  119   113   115    1
  120   115   116    1
  121    87   117    1
  122   113   117    1
  123   117   118    1
  124   117   119    1
  125   119   120    1
  126   106   121    1
  127   119   121    1
  128   119   122    1
  129   122   123    1
  130   122   124    1
  131   122   125    1
  132   125   126    1
  133   127   128    1
  134   127   129    1
  135   127   130    1
  136   130   131    1
  137   130   132    1
  138   130   133    1
  139   133   134    1
  140   127   135    1
  141   133   135    1
  142   135   136    1
  143   135   137    1
  144   133   138    1
  145   138   139    1
@<TRIPOS>SUBSTRUCTURE
       1 MOL1            1 RESIDUE      1      MOL     
       2 MOL1          139 RESIDUE      1      MOL     
@<SCITEGIC>MOL_PROPERTY
VM2 Rank
SciTegic.value.IntegerValue
4

@<SCITEGIC>MOL_PROPERTY
Conf_Id
SciTegic.value.IntegerValue
24194

@<SCITEGIC>MOL_PROPERTY
Probability
SciTegic.value.DoubleValue
1.07

@<SCITEGIC>MOL_PROPERTY
Sum Probability
SciTegic.value.DoubleValue
5.67

@<SCITEGIC>MOL_PROPERTY
Delta G
SciTegic.value.DoubleValue
0.329

@<SCITEGIC>MOL_PROPERTY
G
SciTegic.value.DoubleValue
538.398

@<SCITEGIC>MOL_PROPERTY
E
SciTegic.value.DoubleValue
358.630

@<SCITEGIC>MOL_PROPERTY
-TS
SciTegic.value.DoubleValue
179.768

@<SCITEGIC>MOL_PROPERTY
U+W
SciTegic.value.DoubleValue
236.118

@<SCITEGIC>MOL_PROPERTY
U
SciTegic.value.DoubleValue
268.063

@<SCITEGIC>MOL_PROPERTY
W
SciTegic.value.DoubleValue
-31.945

@<SCITEGIC>MOL_PROPERTY
W(PB)
SciTegic.value.DoubleValue
-38.001

@<SCITEGIC>MOL_PROPERTY
W(SA)
SciTegic.value.DoubleValue
6.056

@<SCITEGIC>MOL_PROPERTY
Valence
SciTegic.value.DoubleValue
149.495

@<SCITEGIC>MOL_PROPERTY
Coulomb
SciTegic.value.DoubleValue
135.807

@<SCITEGIC>MOL_PROPERTY
VdW
SciTegic.value.DoubleValue
-17.238

@<SCITEGIC>MOL_PROPERTY
VdW6
SciTegic.value.DoubleValue
-164.930

@<SCITEGIC>MOL_PROPERTY
VdW12
SciTegic.value.DoubleValue
147.691

@<SCITEGIC>MOL_PROPERTY
Bond
SciTegic.value.DoubleValue
4.591

@<SCITEGIC>MOL_PROPERTY
Angle
SciTegic.value.DoubleValue
11.311

@<SCITEGIC>MOL_PROPERTY
Pdih
SciTegic.value.DoubleValue
133.593

@<SCITEGIC>MOL_PROPERTY
Idih
SciTegic.value.DoubleValue
0.000

@<SCITEGIC>MOL_PROPERTY
Tether
SciTegic.value.DoubleValue
0.000

@<TRIPOS>MOLECULE
CD_guest-s16_vm2_rndm.mol2 : vm2 host+ligand conformer 5
         139         145           2
SMALL
USER_CHARGES
 
@<TRIPOS>ATOM
       1    C1      16.319345   15.270006   20.601320 C.3        1 MOL1         0.2972
       2    H1      15.276621   15.118623   20.293249 H          1 MOL1         0.0751
       3    O1      16.566309   16.638475   20.984017 O.3        1 MOL1        -0.3740
       4    C2      16.698932   14.333693   21.778547 C.3        1 MOL1         0.1003
       5    H2      16.597528   13.302682   21.415260 H          1 MOL1         0.0783
       6    O2      15.828820   14.513110   22.905997 O.3        1 MOL1        -0.5519
       7    H3      15.899188   15.462086   23.182176 H          1 MOL1         0.3769
       8    C3      18.176486   14.547346   22.191095 C.3        1 MOL1         0.1053
       9    H4      18.273252   15.564453   22.596623 H          1 MOL1         0.0783
      10    O3      18.518023   13.589899   23.199862 O.3        1 MOL1        -0.5519
      11    H5      17.722632   13.537086   23.777724 H          1 MOL1         0.3769
      12    C4      19.126081   14.423786   20.965557 C.3        1 MOL1         0.1018
      13    H6      19.234480   13.368467   20.682071 H          1 MOL1         0.0783
      14    C5      18.609754   15.226346   19.740909 C.3        1 MOL1         0.1043
      15    H7      18.745392   16.292566   19.954584 H          1 MOL1         0.0783
      16    O4      17.205675   14.951634   19.508643 O.3        1 MOL1        -0.3740
      17    C6      19.376756   14.907107   18.438557 C.3        1 MOL1         0.0138
      18    H8      20.440311   15.139396   18.581736 H          1 MOL1         0.0794
      19    H9      19.003435   15.561879   17.639817 H          1 MOL1         0.0794
      20    O5      19.215223   13.533861   18.071113 O.3        1 MOL1        -0.5486
      21    H10     18.245816   13.374098   18.035348 H          1 MOL1         0.3769
      22    C7      14.715086   20.248432   21.778255 C.3        1 MOL1         0.2972
      23    H11     14.029626   21.074234   22.008259 H          1 MOL1         0.0751
      24    O6      16.012675   20.725477   21.368974 O.3        1 MOL1        -0.3740
      25    C8      14.883785   19.328293   23.014225 C.3        1 MOL1         0.1003
      26    H12     13.898247   18.899200   23.237482 H          1 MOL1         0.0783
      27    O7      15.344288   20.057970   24.162216 O.3        1 MOL1        -0.5519
      28    H13     15.637711   20.948479   23.847104 H          1 MOL1         0.3769
      29    C9      15.847740   18.162182   22.698553 C.3        1 MOL1         0.1053
      30    H14     16.848374   18.585337   22.546496 H          1 MOL1         0.0783
      31    O8      15.870156   17.262815   23.810776 O.3        1 MOL1        -0.5519
      32    H15     15.959305   17.845699   24.598520 H          1 MOL1         0.3769
      33    C10     15.426337   17.410470   21.409115 C.3        1 MOL1         0.1018
      34    H16     14.564737   16.771446   21.644467 H          1 MOL1         0.0783
      35    C11     15.068687   18.375052   20.240971 C.3        1 MOL1         0.1043
      36    H17     16.001346   18.812251   19.859394 H          1 MOL1         0.0783
      37    O9      14.191316   19.432815   20.708402 O.3        1 MOL1        -0.3740
      38    C12     14.369771   17.671083   19.056781 C.3        1 MOL1         0.0138
      39    H18     15.063785   16.945907   18.611364 H          1 MOL1         0.0794
      40    H19     14.141292   18.419301   18.285989 H          1 MOL1         0.0794
      41    O10     13.172622   17.012386   19.480377 O.3        1 MOL1        -0.5486
      42    H20     12.606998   17.704878   19.889158 H          1 MOL1         0.3769
      43    C13     18.367538   24.059630   20.860924 C.3        1 MOL1         0.2972
      44    H21     18.810514   25.041094   20.647876 H          1 MOL1         0.0751
      45    O11     19.387050   23.045210   21.012300 O.3        1 MOL1        -0.3740
      46    C14     17.460805   24.117031   22.120863 C.3        1 MOL1         0.1003
      47    H22     16.641237   24.810453   21.891166 H          1 MOL1         0.0783
      48    O12     18.157864   24.600918   23.277896 O.3        1 MOL1        -0.5519
      49    H23     18.831953   23.913264   23.509004 H          1 MOL1         0.3769
      50    C15     16.839587   22.729438   22.405853 C.3        1 MOL1         0.1053
      51    H24     17.649894   22.046574   22.696688 H          1 MOL1         0.0783
      52    O13     15.896086   22.847620   23.474509 O.3        1 MOL1        -0.5519
      53    H25     16.326838   23.437848   24.133536 H          1 MOL1         0.3769
      54    C16     16.145419   22.142661   21.149393 C.3        1 MOL1         0.1018
      55    H26     15.171543   22.629234   21.004707 H          1 MOL1         0.0783
      56    C17     16.983390   22.311885   19.853285 C.3        1 MOL1         0.1043
      57    H27     17.805825   21.588651   19.868606 H          1 MOL1         0.0783
      58    O14     17.511517   23.659584   19.770041 O.3        1 MOL1        -0.3740
      59    C18     16.138458   22.056105   18.588316 C.3        1 MOL1         0.0138
      60    H28     15.352353   22.819636   18.516582 H          1 MOL1         0.0794
      61    H29     15.647420   21.077375   18.672973 H          1 MOL1         0.0794
      62    O15     16.972513   22.083986   17.428901 O.3        1 MOL1        -0.5486
      63    H30     17.485038   22.921327   17.481829 H          1 MOL1         0.3769
      64    C19     23.402156   22.555221   22.063622 C.3        1 MOL1         0.2972
      65    H31     24.422238   22.714320   22.435884 H          1 MOL1         0.0751
      66    O16     23.299461   21.328577   21.313223 O.3        1 MOL1        -0.3740
      67    C20     22.393024   22.527962   23.244006 C.3        1 MOL1         0.1003
      68    H32     22.476387   23.495805   23.755511 H          1 MOL1         0.0783
      69    O17     22.681533   21.480149   24.183087 O.3        1 MOL1        -0.5519
      70    H33     23.631118   21.236701   24.066398 H          1 MOL1         0.3769
      71    C21     20.941695   22.381914   22.733182 C.3        1 MOL1         0.1053
      72    H34     20.837199   21.385947   22.281757 H          1 MOL1         0.0783
      73    O18     20.053950   22.509146   23.847895 O.3        1 MOL1        -0.5519
      74    H35     20.445069   21.926042   24.537623 H          1 MOL1         0.3769
      75    C22     20.615774   23.445241   21.654551 C.3        1 MOL1         0.1018
      76    H36     20.522432   24.424465   22.142031 H          1 MOL1         0.0783
      77    C23     21.718039   23.515573   20.561724 C.3        1 MOL1         0.1043
      78    H37     21.677486   22.593462   19.967034 H          1 MOL1         0.0783
      79    O19     23.021083   23.638355   21.186927 O.3        1 MOL1        -0.3740
      80    C24     21.545497   24.706850   19.593037 C.3        1 MOL1         0.0138
      81    H38     20.614276   24.574393   19.026300 H          1 MOL1         0.0794
      82    H39     22.371854   24.696858   18.869737 H          1 MOL1         0.0794
      83    O20     21.518923   25.950292   20.300071 O.3        1 MOL1        -0.5486
      84    H40     22.362056   25.999246   20.803344 H          1 MOL1         0.3769
      85    C25     25.212049   17.713383   20.913226 C.3        1 MOL1         0.2972
      86    H41     25.861296   16.850851   20.714708 H          1 MOL1         0.0751
      87    O21     23.837984   17.312941   21.104685 O.3        1 MOL1        -0.3740
      88    C26     25.701253   18.518734   22.143882 C.3        1 MOL1         0.1003
      89    H42     26.689995   18.922173   21.888924 H          1 MOL1         0.0783
      90    O22     25.828260   17.698299   23.314310 O.3        1 MOL1        -0.5519
      91    H43     24.917420   17.385119   23.545557 H          1 MOL1         0.3769
      92    C27     24.757196   19.714496   22.417932 C.3        1 MOL1         0.1053
      93    H44     23.788144   19.311747   22.745027 H          1 MOL1         0.0783
      94    O23     25.329794   20.514392   23.458986 O.3        1 MOL1        -0.5519
      95    H45     25.709019   19.867318   24.096969 H          1 MOL1         0.3769
      96    C28     24.516137   20.570566   21.139742 C.3        1 MOL1         0.1018
      97    H46     25.376866   21.231708   20.972259 H          1 MOL1         0.0783
      98    C29     24.293266   19.716140   19.861943 C.3        1 MOL1         0.1043
      99    H47     23.276829   19.311218   19.885778 H          1 MOL1         0.0783
     100    O24     25.251446   18.630852   19.800566 O.3        1 MOL1        -0.3740
     101    C30     24.432777   20.552190   18.574617 C.3        1 MOL1         0.0138
     102    H48     25.472977   20.887887   18.467409 H          1 MOL1         0.0794
     103    H49     23.798768   21.445649   18.654576 H          1 MOL1         0.0794
     104    O25     24.033634   19.772027   17.446483 O.3        1 MOL1        -0.5486
     105    H50     24.617036   18.979752   17.441567 H          1 MOL1         0.3769
     106    C31     21.336442   14.151908   21.992186 C.3        1 MOL1         0.2972
     107    H51     20.877715   13.200000   22.288419 H          1 MOL1         0.0751
     108    O26     20.397964   15.007318   21.309805 O.3        1 MOL1        -0.3740
     109    C32     21.875327   14.903251   23.235610 C.3        1 MOL1         0.1003
     110    H52     22.637868   14.261607   23.696064 H          1 MOL1         0.0783
     111    O27     20.833139   15.156711   24.192193 O.3        1 MOL1        -0.5519
     112    H53     20.064775   14.588619   23.941498 H          1 MOL1         0.3769
     113    C33     22.548880   16.232497   22.821121 C.3        1 MOL1         0.1053
     114    H54     21.766160   16.902370   22.440855 H          1 MOL1         0.0783
     115    O28     23.163877   16.816521   23.973167 O.3        1 MOL1        -0.5519
     116    H55     22.472777   16.768572   24.671895 H          1 MOL1         0.3769
     117    C34     23.598054   16.022083   21.697224 C.3        1 MOL1         0.1018
     118    H56     24.509045   15.596262   22.138176 H          1 MOL1         0.0783
     119    C35     23.079599   15.099248   20.557741 C.3        1 MOL1         0.1043
     120    H57     22.341954   15.660276   19.969042 H          1 MOL1         0.0783
     121    O29     22.456370   13.914627   21.113156 O.3        1 MOL1        -0.3740
     122    C36     24.191254   14.639152   19.588775 C.3        1 MOL1         0.0138
     123    H58     24.598136   15.516908   19.069298 H          1 MOL1         0.0794
     124    H59     23.746394   13.985865   18.826152 H          1 MOL1         0.0794
     125    O30     25.234068   13.951078   20.285779 O.3        1 MOL1        -0.5486
     126    H60     24.805147   13.196282   20.747242 H          1 MOL1         0.3769
     127    C1      19.201499   19.136429   20.573910 C.3        1 MOL1        -0.1693
     128    H1      19.114668   20.136862   21.015118 H          1 MOL1         0.0829
     129    H2      18.569120   18.447651   21.141348 H          1 MOL1         0.0829
     130    C2      20.668412   18.659112   20.335491 C.3        1 MOL1        -0.1768
     131    H3      21.406105   19.034395   21.052300 H          1 MOL1         0.0829
     132    H4      20.790144   17.574390   20.240481 H          1 MOL1         0.0829
     133    C3      20.576299   19.415542   18.974878 C.3        1 MOL1         0.1211
     134    H5      20.792904   20.490021   19.041607 H          1 MOL1         0.0786
     135    C4      19.055723   19.080583   19.017600 C.3        1 MOL1        -0.1768
     136    H6      18.395296   19.823279   18.559765 H          1 MOL1         0.0829
     137    H7      18.800539   18.096787   18.609620 H          1 MOL1         0.0829
     138    O1      21.274154   18.821865   17.903032 O.3        1 MOL1        -0.5515
     139    H8      22.178915   19.212033   17.862110 H          1 MOL1         0.3773
@<TRIPOS>BOND
    1     1     2    1
    2     1     3    1
    3     1     4    1
    4     4     5    1
    5     4     6    1
    6     6     7    1
    7     4     8    1
    8     8     9    1
    9     8    10    1
   10    10    11    1
   11     8    12    1
   12    12    13    1
   13    12    14    1
   14    14    15    1
   15     1    16    1
   16    14    16    1
   17    14    17    1
   18    17    18    1
   19    17    19    1
   20    17    20    1
   21    20    21    1
   22    22    23    1
   23    22    24    1
   24    22    25    1
   25    25    26    1
   26    25    27    1
   27    27    28    1
   28    25    29    1
   29    29    30    1
   30    29    31    1
   31    31    32    1
   32     3    33    1
   33    29    33    1
   34    33    34    1
   35    33    35    1
   36    35    36    1
   37    22    37    1
   38    35    37    1
   39    35    38    1
   40    38    39    1
   41    38    40    1
   42    38    41    1
   43    41    42    1
   44    43    44    1
   45    43    45    1
   46    43    46    1
   47    46    47    1
   48    46    48    1
   49    48    49    1
   50    46    50    1
   51    50    51    1
   52    50    52    1
   53    52    53    1
   54    24    54    1
   55    50    54    1
   56    54    55    1
   57    54    56    1
   58    56    57    1
   59    43    58    1
   60    56    58    1
   61    56    59    1
   62    59    60    1
   63    59    61    1
   64    59    62    1
   65    62    63    1
   66    64    65    1
   67    64    66    1
   68    64    67    1
   69    67    68    1
   70    67    69    1
   71    69    70    1
   72    67    71    1
   73    71    72    1
   74    71    73    1
   75    73    74    1
   76    45    75    1
   77    71    75    1
   78    75    76    1
   79    75    77    1
   80    77    78    1
   81    64    79    1
   82    77    79    1
   83    77    80    1
   84    80    81    1
   85    80    82    1
   86    80    83    1
   87    83    84    1
   88    85    86    1
   89    85    87    1
   90    85    88    1
   91    88    89    1
   92    88    90    1
   93    90    91    1
   94    88    92    1
   95    92    93    1
   96    92    94    1
   97    94    95    1
   98    66    96    1
   99    92    96    1
  100    96    97    1
  101    96    98    1
  102    98    99    1
  103    85   100    1
  104    98   100    1
  105    98   101    1
  106   101   102    1
  107   101   103    1
  108   101   104    1
  109   104   105    1
  110   106   107    1
  111    12   108    1
  112   106   108    1
  113   106   109    1
  114   109   110    1
  115   109   111    1
  116   111   112    1
  117   109   113    1
  118   113   114    1
  119   113   115    1
  120   115   116    1
  121    87   117    1
  122   113   117    1
  123   117   118    1
  124   117   119    1
  125   119   120    1
  126   106   121    1
  127   119   121    1
  128   119   122    1
  129   122   123    1
  130   122   124    1
  131   122   125    1
  132   125   126    1
  133   127   128    1
  134   127   129    1
  135   127   130    1
  136   130   131    1
  137   130   132    1
  138   130   133    1
  139   133   134    1
  140   127   135    1
  141   133   135    1
  142   135   136    1
  143   135   137    1
  144   133   138    1
  145   138   139    1
@<TRIPOS>SUBSTRUCTURE
       1 MOL1            1 RESIDUE      1      MOL     
       2 MOL1          139 RESIDUE      1      MOL     
@<SCITEGIC>MOL_PROPERTY
VM2 Rank
SciTegic.value.IntegerValue
5

@<SCITEGIC>MOL_PROPERTY
Conf_Id
SciTegic.value.IntegerValue
5534

@<SCITEGIC>MOL_PROPERTY
Probability
SciTegic.value.DoubleValue
1.01

@<SCITEGIC>MOL_PROPERTY
Sum Probability
SciTegic.value.DoubleValue
6.68

@<SCITEGIC>MOL_PROPERTY
Delta G
SciTegic.value.DoubleValue
0.364

@<SCITEGIC>MOL_PROPERTY
G
SciTegic.value.DoubleValue
538.433

@<SCITEGIC>MOL_PROPERTY
E
SciTegic.value.DoubleValue
359.218

@<SCITEGIC>MOL_PROPERTY
-TS
SciTegic.value.DoubleValue
179.215

@<SCITEGIC>MOL_PROPERTY
U+W
SciTegic.value.DoubleValue
236.707

@<SCITEGIC>MOL_PROPERTY
U
SciTegic.value.DoubleValue
268.500

@<SCITEGIC>MOL_PROPERTY
W
SciTegic.value.DoubleValue
-31.793

@<SCITEGIC>MOL_PROPERTY
W(PB)
SciTegic.value.DoubleValue
-37.838

@<SCITEGIC>MOL_PROPERTY
W(SA)
SciTegic.value.DoubleValue
6.045

@<SCITEGIC>MOL_PROPERTY
Valence
SciTegic.value.DoubleValue
150.254

@<SCITEGIC>MOL_PROPERTY
Coulomb
SciTegic.value.DoubleValue
135.965

@<SCITEGIC>MOL_PROPERTY
VdW
SciTegic.value.DoubleValue
-17.719

@<SCITEGIC>MOL_PROPERTY
VdW6
SciTegic.value.DoubleValue
-164.087

@<SCITEGIC>MOL_PROPERTY
VdW12
SciTegic.value.DoubleValue
146.368

@<SCITEGIC>MOL_PROPERTY
Bond
SciTegic.value.DoubleValue
4.541

@<SCITEGIC>MOL_PROPERTY
Angle
SciTegic.value.DoubleValue
10.705

@<SCITEGIC>MOL_PROPERTY
Pdih
SciTegic.value.DoubleValue
135.008

@<SCITEGIC>MOL_PROPERTY
Idih
SciTegic.value.DoubleValue
0.000

@<SCITEGIC>MOL_PROPERTY
Tether
SciTegic.value.DoubleValue
0.000

@<TRIPOS>MOLECULE
CD_guest-s16_vm2_rndm.mol2 : vm2 host+ligand conformer 6
         139         145           2
SMALL
USER_CHARGES
 
@<TRIPOS>ATOM
       1    C1      16.249583   15.125447   20.667600 C.3        1 MOL1         0.2972
       2    H1      15.195081   14.971287   20.404520 H          1 MOL1         0.0751
       3    O1      16.532905   16.516574   20.927576 O.3        1 MOL1        -0.3740
       4    C2      16.656505   14.266049   21.892581 C.3        1 MOL1         0.1003
       5    H2      16.546554   13.215025   21.594925 H          1 MOL1         0.0783
       6    O2      15.815870   14.509000   23.029741 O.3        1 MOL1        -0.5519
       7    H3      15.950689   15.454880   23.291000 H          1 MOL1         0.3769
       8    C3      18.144068   14.502107   22.251199 C.3        1 MOL1         0.1053
       9    H4      18.250503   15.538424   22.602108 H          1 MOL1         0.0783
      10    O3      18.510365   13.593090   23.295503 O.3        1 MOL1        -0.5519
      11    H5      17.730038   13.568695   23.895484 H          1 MOL1         0.3769
      12    C4      19.065616   14.312925   21.011573 C.3        1 MOL1         0.1018
      13    H6      19.191838   13.241206   20.807740 H          1 MOL1         0.0783
      14    C5      18.508149   14.996072   19.733338 C.3        1 MOL1         0.1043
      15    H7      18.661240   16.077835   19.819951 H          1 MOL1         0.0783
      16    O4      17.096693   14.700185   19.580207 O.3        1 MOL1        -0.3740
      17    C6      19.229380   14.507310   18.460305 C.3        1 MOL1         0.0138
      18    H8      19.058988   13.429261   18.338654 H          1 MOL1         0.0794
      19    H9      20.310363   14.665299   18.573401 H          1 MOL1         0.0794
      20    O5      18.747585   15.221605   17.320827 O.3        1 MOL1        -0.5486
      21    H10     17.766582   15.177559   17.368756 H          1 MOL1         0.3769
      22    C7      14.843629   20.185083   21.818017 C.3        1 MOL1         0.2972
      23    H11     14.196898   21.026163   22.099338 H          1 MOL1         0.0751
      24    O6      16.078279   20.637390   21.225102 O.3        1 MOL1        -0.3740
      25    C8      15.157275   19.305392   23.056857 C.3        1 MOL1         0.1003
      26    H12     14.200078   18.911212   23.422431 H          1 MOL1         0.0783
      27    O7      15.784856   20.055461   24.108813 O.3        1 MOL1        -0.5519
      28    H13     15.764064   21.007155   23.844034 H          1 MOL1         0.3769
      29    C9      16.049526   18.106636   22.665868 C.3        1 MOL1         0.1053
      30    H14     17.028632   18.504601   22.374287 H          1 MOL1         0.0783
      31    O8      16.196952   17.251409   23.802833 O.3        1 MOL1        -0.5519
      32    H15     16.404176   17.864259   24.544507 H          1 MOL1         0.3769
      33    C10     15.462697   17.318560   21.465876 C.3        1 MOL1         0.1018
      34    H16     14.627721   16.701659   21.823716 H          1 MOL1         0.0783
      35    C11     14.978238   18.251785   20.319281 C.3        1 MOL1         0.1043
      36    H17     15.863109   18.659906   19.812548 H          1 MOL1         0.0783
      37    O9      14.179789   19.339140   20.854414 O.3        1 MOL1        -0.3740
      38    C12     14.130155   17.521484   19.254502 C.3        1 MOL1         0.0138
      39    H18     14.753887   16.767194   18.756632 H          1 MOL1         0.0794
      40    H19     13.822323   18.246890   18.489559 H          1 MOL1         0.0794
      41    O10     12.982434   16.902165   19.842455 O.3        1 MOL1        -0.5486
      42    H20     12.482775   17.619315   20.292628 H          1 MOL1         0.3769
      43    C13     18.414257   24.003570   20.762962 C.3        1 MOL1         0.2972
      44    H21     18.849236   24.987620   20.545551 H          1 MOL1         0.0751
      45    O11     19.442056   23.012074   20.982736 O.3        1 MOL1        -0.3740
      46    C14     17.453301   24.074401   21.980734 C.3        1 MOL1         0.1003
      47    H22     16.638878   24.755459   21.701058 H          1 MOL1         0.0783
      48    O12     18.094571   24.588219   23.157175 O.3        1 MOL1        -0.5519
      49    H23     18.770222   23.916316   23.427473 H          1 MOL1         0.3769
      50    C15     16.829595   22.688758   22.271535 C.3        1 MOL1         0.1053
      51    H24     17.628607   22.023542   22.627894 H          1 MOL1         0.0783
      52    O13     15.830174   22.841143   23.285107 O.3        1 MOL1        -0.5519
      53    H25     16.217193   23.474638   23.931658 H          1 MOL1         0.3769
      54    C16     16.209343   22.054845   20.996551 C.3        1 MOL1         0.1018
      55    H26     15.237004   22.520701   20.787566 H          1 MOL1         0.0783
      56    C17     17.109958   22.206205   19.740865 C.3        1 MOL1         0.1043
      57    H27     17.943897   21.498499   19.817728 H          1 MOL1         0.0783
      58    O14     17.615350   23.561479   19.646445 O.3        1 MOL1        -0.3740
      59    C18     16.333667   21.903546   18.442637 C.3        1 MOL1         0.0138
      60    H28     15.540706   22.651937   18.311437 H          1 MOL1         0.0794
      61    H29     15.853776   20.919384   18.528771 H          1 MOL1         0.0794
      62    O15     17.224233   21.915408   17.325993 O.3        1 MOL1        -0.5486
      63    H30     17.726771   22.758119   17.386209 H          1 MOL1         0.3769
      64    C19     23.414965   22.582129   22.151752 C.3        1 MOL1         0.2972
      65    H31     24.427808   22.733519   22.546558 H          1 MOL1         0.0751
      66    O16     23.317110   21.358160   21.398398 O.3        1 MOL1        -0.3740
      67    C20     22.379359   22.557850   23.308015 C.3        1 MOL1         0.1003
      68    H32     22.448047   23.527787   23.817686 H          1 MOL1         0.0783
      69    O17     22.650961   21.513481   24.256143 O.3        1 MOL1        -0.5519
      70    H33     23.585731   21.227158   24.117365 H          1 MOL1         0.3769
      71    C21     20.940656   22.405339   22.763109 C.3        1 MOL1         0.1053
      72    H34     20.845579   21.402683   22.324463 H          1 MOL1         0.0783
      73    O18     20.022640   22.550113   23.851156 O.3        1 MOL1        -0.5519
      74    H35     20.387505   21.970220   24.557515 H          1 MOL1         0.3769
      75    C22     20.637375   23.450446   21.660359 C.3        1 MOL1         0.1018
      76    H36     20.504331   24.432175   22.133267 H          1 MOL1         0.0783
      77    C23     21.773296   23.535528   20.602854 C.3        1 MOL1         0.1043
      78    H37     21.758678   22.616023   20.002772 H          1 MOL1         0.0783
      79    O19     23.055871   23.666396   21.267841 O.3        1 MOL1        -0.3740
      80    C24     21.621038   24.727851   19.632177 C.3        1 MOL1         0.0138
      81    H38     20.711242   24.587283   19.033580 H          1 MOL1         0.0794
      82    H39     22.471475   24.728463   18.937259 H          1 MOL1         0.0794
      83    O20     21.557636   25.968931   20.340861 O.3        1 MOL1        -0.5486
      84    H40     22.382993   26.025663   20.872019 H          1 MOL1         0.3769
      85    C25     25.189323   17.743263   20.915441 C.3        1 MOL1         0.2972
      86    H41     25.832735   16.879490   20.703841 H          1 MOL1         0.0751
      87    O21     23.805439   17.349829   21.056246 O.3        1 MOL1        -0.3740
      88    C26     25.665451   18.504061   22.181118 C.3        1 MOL1         0.1003
      89    H42     26.662691   18.903951   21.955360 H          1 MOL1         0.0783
      90    O22     25.765427   17.649090   23.328941 O.3        1 MOL1        -0.5519
      91    H43     24.842210   17.372743   23.557224 H          1 MOL1         0.3769
      92    C27     24.730993   19.701816   22.475636 C.3        1 MOL1         0.1053
      93    H44     23.748781   19.302852   22.764944 H          1 MOL1         0.0783
      94    O23     25.284953   20.462712   23.555091 O.3        1 MOL1        -0.5519
      95    H45     25.636297   19.792628   24.184987 H          1 MOL1         0.3769
      96    C28     24.532291   20.601633   21.223193 C.3        1 MOL1         0.1018
      97    H46     25.401573   21.261345   21.099765 H          1 MOL1         0.0783
      98    C29     24.329166   19.797223   19.910682 C.3        1 MOL1         0.1043
      99    H47     23.305718   19.410571   19.892402 H          1 MOL1         0.0783
     100    O24     25.267144   18.695275   19.833100 O.3        1 MOL1        -0.3740
     101    C30     24.516627   20.683184   18.663269 C.3        1 MOL1         0.0138
     102    H48     25.578325   20.942576   18.554839 H          1 MOL1         0.0794
     103    H49     23.955874   21.618309   18.796751 H          1 MOL1         0.0794
     104    O25     24.040312   19.996789   17.505657 O.3        1 MOL1        -0.5486
     105    H50     24.542032   19.152243   17.457608 H          1 MOL1         0.3769
     106    C31     21.302779   14.169668   22.008352 C.3        1 MOL1         0.2972
     107    H51     20.881647   13.213118   22.343186 H          1 MOL1         0.0751
     108    O26     20.334122   14.947444   21.276403 O.3        1 MOL1        -0.3740
     109    C32     21.805419   14.991898   23.224048 C.3        1 MOL1         0.1003
     110    H52     22.574531   14.387543   23.722512 H          1 MOL1         0.0783
     111    O27     20.749969   15.267867   24.159007 O.3        1 MOL1        -0.5519
     112    H53     20.016102   14.635989   23.965256 H          1 MOL1         0.3769
     113    C33     22.459081   16.316016   22.766807 C.3        1 MOL1         0.1053
     114    H54     21.671701   16.953698   22.342932 H          1 MOL1         0.0783
     115    O28     23.037878   16.953882   23.908949 O.3        1 MOL1        -0.5519
     116    H55     22.330374   16.921119   24.592118 H          1 MOL1         0.3769
     117    C34     23.534882   16.075710   21.675522 C.3        1 MOL1         0.1018
     118    H56     24.430429   15.651038   22.147762 H          1 MOL1         0.0783
     119    C35     23.031852   15.121780   20.555798 C.3        1 MOL1         0.1043
     120    H57     22.281917   15.655284   19.956736 H          1 MOL1         0.0783
     121    O29     22.434151   13.937489   21.141464 O.3        1 MOL1        -0.3740
     122    C36     24.152534   14.661097   19.597291 C.3        1 MOL1         0.0138
     123    H58     24.545187   15.535130   19.060780 H          1 MOL1         0.0794
     124    H59     23.720432   13.984919   18.847507 H          1 MOL1         0.0794
     125    O30     25.206247   14.005533   20.309114 O.3        1 MOL1        -0.5486
     126    H60     24.789585   13.254697   20.787900 H          1 MOL1         0.3769
     127    C1      19.228231   18.869844   20.641401 C.3        1 MOL1        -0.1693
     128    H1      18.893263   19.765109   21.181079 H          1 MOL1         0.0829
     129    H2      18.846371   17.982878   21.157513 H          1 MOL1         0.0829
     130    C2      20.751872   18.842252   20.306669 C.3        1 MOL1        -0.1768
     131    H3      21.401388   19.330225   21.040348 H          1 MOL1         0.0829
     132    H4      21.152048   17.846092   20.083739 H          1 MOL1         0.0829
     133    C3      20.375003   19.679998   19.046414 C.3        1 MOL1         0.1211
     134    H5      20.283921   20.758284   19.234256 H          1 MOL1         0.0786
     135    C4      19.017913   18.914714   19.092288 C.3        1 MOL1        -0.1768
     136    H6      18.144473   19.466684   18.732691 H          1 MOL1         0.0829
     137    H7      19.040216   17.940099   18.590937 H          1 MOL1         0.0829
     138    O1      21.141619   19.429007   17.889245 O.3        1 MOL1        -0.5515
     139    H8      22.046522   19.799087   18.006001 H          1 MOL1         0.3773
@<TRIPOS>BOND
    1     1     2    1
    2     1     3    1
    3     1     4    1
    4     4     5    1
    5     4     6    1
    6     6     7    1
    7     4     8    1
    8     8     9    1
    9     8    10    1
   10    10    11    1
   11     8    12    1
   12    12    13    1
   13    12    14    1
   14    14    15    1
   15     1    16    1
   16    14    16    1
   17    14    17    1
   18    17    18    1
   19    17    19    1
   20    17    20    1
   21    20    21    1
   22    22    23    1
   23    22    24    1
   24    22    25    1
   25    25    26    1
   26    25    27    1
   27    27    28    1
   28    25    29    1
   29    29    30    1
   30    29    31    1
   31    31    32    1
   32     3    33    1
   33    29    33    1
   34    33    34    1
   35    33    35    1
   36    35    36    1
   37    22    37    1
   38    35    37    1
   39    35    38    1
   40    38    39    1
   41    38    40    1
   42    38    41    1
   43    41    42    1
   44    43    44    1
   45    43    45    1
   46    43    46    1
   47    46    47    1
   48    46    48    1
   49    48    49    1
   50    46    50    1
   51    50    51    1
   52    50    52    1
   53    52    53    1
   54    24    54    1
   55    50    54    1
   56    54    55    1
   57    54    56    1
   58    56    57    1
   59    43    58    1
   60    56    58    1
   61    56    59    1
   62    59    60    1
   63    59    61    1
   64    59    62    1
   65    62    63    1
   66    64    65    1
   67    64    66    1
   68    64    67    1
   69    67    68    1
   70    67    69    1
   71    69    70    1
   72    67    71    1
   73    71    72    1
   74    71    73    1
   75    73    74    1
   76    45    75    1
   77    71    75    1
   78    75    76    1
   79    75    77    1
   80    77    78    1
   81    64    79    1
   82    77    79    1
   83    77    80    1
   84    80    81    1
   85    80    82    1
   86    80    83    1
   87    83    84    1
   88    85    86    1
   89    85    87    1
   90    85    88    1
   91    88    89    1
   92    88    90    1
   93    90    91    1
   94    88    92    1
   95    92    93    1
   96    92    94    1
   97    94    95    1
   98    66    96    1
   99    92    96    1
  100    96    97    1
  101    96    98    1
  102    98    99    1
  103    85   100    1
  104    98   100    1
  105    98   101    1
  106   101   102    1
  107   101   103    1
  108   101   104    1
  109   104   105    1
  110   106   107    1
  111    12   108    1
  112   106   108    1
  113   106   109    1
  114   109   110    1
  115   109   111    1
  116   111   112    1
  117   109   113    1
  118   113   114    1
  119   113   115    1
  120   115   116    1
  121    87   117    1
  122   113   117    1
  123   117   118    1
  124   117   119    1
  125   119   120    1
  126   106   121    1
  127   119   121    1
  128   119   122    1
  129   122   123    1
  130   122   124    1
  131   122   125    1
  132   125   126    1
  133   127   128    1
  134   127   129    1
  135   127   130    1
  136   130   131    1
  137   130   132    1
  138   130   133    1
  139   133   134    1
  140   127   135    1
  141   133   135    1
  142   135   136    1
  143   135   137    1
  144   133   138    1
  145   138   139    1
@<TRIPOS>SUBSTRUCTURE
       1 MOL1            1 RESIDUE      1      MOL     
       2 MOL1          139 RESIDUE      1      MOL     
@<SCITEGIC>MOL_PROPERTY
VM2 Rank
SciTegic.value.IntegerValue
6

@<SCITEGIC>MOL_PROPERTY
Conf_Id
SciTegic.value.IntegerValue
17105

@<SCITEGIC>MOL_PROPERTY
Probability
SciTegic.value.DoubleValue
0.92

@<SCITEGIC>MOL_PROPERTY
Sum Probability
SciTegic.value.DoubleValue
7.60

@<SCITEGIC>MOL_PROPERTY
Delta G
SciTegic.value.DoubleValue
0.418

@<SCITEGIC>MOL_PROPERTY
G
SciTegic.value.DoubleValue
538.486

@<SCITEGIC>MOL_PROPERTY
E
SciTegic.value.DoubleValue
358.799

@<SCITEGIC>MOL_PROPERTY
-TS
SciTegic.value.DoubleValue
179.687

@<SCITEGIC>MOL_PROPERTY
U+W
SciTegic.value.DoubleValue
236.288

@<SCITEGIC>MOL_PROPERTY
U
SciTegic.value.DoubleValue
270.232

@<SCITEGIC>MOL_PROPERTY
W
SciTegic.value.DoubleValue
-33.944

@<SCITEGIC>MOL_PROPERTY
W(PB)
SciTegic.value.DoubleValue
-39.943

@<SCITEGIC>MOL_PROPERTY
W(SA)
SciTegic.value.DoubleValue
5.999

@<SCITEGIC>MOL_PROPERTY
Valence
SciTegic.value.DoubleValue
149.887

@<SCITEGIC>MOL_PROPERTY
Coulomb
SciTegic.value.DoubleValue
138.270

@<SCITEGIC>MOL_PROPERTY
VdW
SciTegic.value.DoubleValue
-17.925

@<SCITEGIC>MOL_PROPERTY
VdW6
SciTegic.value.DoubleValue
-164.553

@<SCITEGIC>MOL_PROPERTY
VdW12
SciTegic.value.DoubleValue
146.629

@<SCITEGIC>MOL_PROPERTY
Bond
SciTegic.value.DoubleValue
4.530

@<SCITEGIC>MOL_PROPERTY
Angle
SciTegic.value.DoubleValue
11.162

@<SCITEGIC>MOL_PROPERTY
Pdih
SciTegic.value.DoubleValue
134.194

@<SCITEGIC>MOL_PROPERTY
Idih
SciTegic.value.DoubleValue
0.000

@<SCITEGIC>MOL_PROPERTY
Tether
SciTegic.value.DoubleValue
0.000

@<TRIPOS>MOLECULE
CD_guest-s16_vm2_rndm.mol2 : vm2 host+ligand conformer 7
         139         145           2
SMALL
USER_CHARGES
 
@<TRIPOS>ATOM
       1    C1      16.306276   15.145279   20.633958 C.3        1 MOL1         0.2972
       2    H1      15.256782   14.995651   20.349365 H          1 MOL1         0.0751
       3    O1      16.597325   16.541945   20.853689 O.3        1 MOL1        -0.3740
       4    C2      16.671151   14.311624   21.892034 C.3        1 MOL1         0.1003
       5    H2      16.543186   13.255632   21.620372 H          1 MOL1         0.0783
       6    O2      15.817272   14.602324   23.007988 O.3        1 MOL1        -0.5519
       7    H3      16.003432   15.538747   23.271418 H          1 MOL1         0.3769
       8    C3      18.155328   14.522934   22.276506 C.3        1 MOL1         0.1053
       9    H4      18.278102   15.563688   22.607960 H          1 MOL1         0.0783
      10    O3      18.486914   13.627455   23.343317 O.3        1 MOL1        -0.5519
      11    H5      17.704350   13.641721   23.940298 H          1 MOL1         0.3769
      12    C4      19.096981   14.288748   21.063764 C.3        1 MOL1         0.1018
      13    H6      19.201053   13.210751   20.881364 H          1 MOL1         0.0783
      14    C5      18.586762   14.961799   19.760512 C.3        1 MOL1         0.1043
      15    H7      18.755918   16.044071   19.828367 H          1 MOL1         0.0783
      16    O4      17.174711   14.683143   19.578101 O.3        1 MOL1        -0.3740
      17    C6      19.332016   14.429105   18.518888 C.3        1 MOL1         0.0138
      18    H8      19.131423   13.354907   18.409863 H          1 MOL1         0.0794
      19    H9      20.413347   14.554362   18.664120 H          1 MOL1         0.0794
      20    O5      18.911476   15.136592   17.351683 O.3        1 MOL1        -0.5486
      21    H10     17.928642   15.140294   17.374878 H          1 MOL1         0.3769
      22    C7      14.893999   20.212527   21.797627 C.3        1 MOL1         0.2972
      23    H11     14.232240   21.028417   22.115469 H          1 MOL1         0.0751
      24    O6      16.064771   20.714475   21.121062 O.3        1 MOL1        -0.3740
      25    C8      15.319224   19.350772   23.018167 C.3        1 MOL1         0.1003
      26    H12     14.398284   18.940775   23.452989 H          1 MOL1         0.0783
      27    O7      16.002736   20.118689   24.020800 O.3        1 MOL1        -0.5519
      28    H13     15.808371   21.070512   23.844588 H          1 MOL1         0.3769
      29    C9      16.207456   18.164532   22.580986 C.3        1 MOL1         0.1053
      30    H14     17.161617   18.570517   22.220016 H          1 MOL1         0.0783
      31    O8      16.437364   17.324533   23.716236 O.3        1 MOL1        -0.5519
      32    H15     16.688802   17.949059   24.434123 H          1 MOL1         0.3769
      33    C10     15.555377   17.353810   21.432512 C.3        1 MOL1         0.1018
      34    H16     14.742805   16.743565   21.848003 H          1 MOL1         0.0783
      35    C11     14.997655   18.269759   20.305779 C.3        1 MOL1         0.1043
      36    H17     15.845032   18.697746   19.753942 H          1 MOL1         0.0783
      37    O9      14.201195   19.338379   20.879831 O.3        1 MOL1        -0.3740
      38    C12     14.114009   17.516407   19.286863 C.3        1 MOL1         0.0138
      39    H18     14.730044   16.776951   18.758127 H          1 MOL1         0.0794
      40    H19     13.749583   18.232393   18.538068 H          1 MOL1         0.0794
      41    O10     13.013539   16.869797   19.933038 O.3        1 MOL1        -0.5486
      42    H20     12.518754   17.575266   20.406419 H          1 MOL1         0.3769
      43    C13     18.363859   24.109021   20.801215 C.3        1 MOL1         0.2972
      44    H21     18.814373   25.093914   20.622540 H          1 MOL1         0.0751
      45    O11     19.373438   23.094024   20.999610 O.3        1 MOL1        -0.3740
      46    C14     17.389705   24.147677   22.007839 C.3        1 MOL1         0.1003
      47    H22     16.581639   24.840841   21.739600 H          1 MOL1         0.0783
      48    O12     18.021948   24.623179   23.205036 O.3        1 MOL1        -0.5519
      49    H23     18.696448   23.943565   23.458680 H          1 MOL1         0.3769
      50    C15     16.756810   22.756157   22.249899 C.3        1 MOL1         0.1053
      51    H24     17.548244   22.083278   22.608962 H          1 MOL1         0.0783
      52    O13     15.738204   22.892116   23.247442 O.3        1 MOL1        -0.5519
      53    H25     16.111419   23.519351   23.908298 H          1 MOL1         0.3769
      54    C16     16.162160   22.144809   20.948574 C.3        1 MOL1         0.1018
      55    H26     15.179177   22.590838   20.746738 H          1 MOL1         0.0783
      56    C17     17.067331   22.357891   19.703927 C.3        1 MOL1         0.1043
      57    H27     17.906152   21.656917   19.755772 H          1 MOL1         0.0783
      58    O14     17.567437   23.717093   19.665153 O.3        1 MOL1        -0.3740
      59    C18     16.318220   22.090974   18.384387 C.3        1 MOL1         0.0138
      60    H28     15.507681   22.823000   18.269021 H          1 MOL1         0.0794
      61    H29     15.865558   21.090693   18.422345 H          1 MOL1         0.0794
      62    O15     17.233375   22.173157   17.290250 O.3        1 MOL1        -0.5486
      63    H30     17.635577   23.069747   17.338870 H          1 MOL1         0.3769
      64    C19     23.337111   22.549395   22.149801 C.3        1 MOL1         0.2972
      65    H31     24.352765   22.680203   22.544367 H          1 MOL1         0.0751
      66    O16     23.217067   21.329824   21.390553 O.3        1 MOL1        -0.3740
      67    C20     22.304963   22.534637   23.309044 C.3        1 MOL1         0.1003
      68    H32     22.398612   23.495545   23.831677 H          1 MOL1         0.0783
      69    O17     22.557731   21.470466   24.240517 O.3        1 MOL1        -0.5519
      70    H33     23.500072   21.199294   24.124721 H          1 MOL1         0.3769
      71    C21     20.861116   22.423501   22.767101 C.3        1 MOL1         0.1053
      72    H34     20.741452   21.429678   22.313797 H          1 MOL1         0.0783
      73    O18     19.949829   22.574150   23.859935 O.3        1 MOL1        -0.5519
      74    H35     20.298844   21.971262   24.554872 H          1 MOL1         0.3769
      75    C22     20.579844   23.491816   21.680599 C.3        1 MOL1         0.1018
      76    H36     20.472890   24.470606   22.166392 H          1 MOL1         0.0783
      77    C23     21.711796   23.556884   20.617881 C.3        1 MOL1         0.1043
      78    H37     21.670321   22.642702   20.010641 H          1 MOL1         0.0783
      79    O19     23.000461   23.648646   21.275892 O.3        1 MOL1        -0.3740
      80    C24     21.584354   24.761824   19.659153 C.3        1 MOL1         0.0138
      81    H38     20.666786   24.651087   19.066125 H          1 MOL1         0.0794
      82    H39     22.429548   24.746568   18.958050 H          1 MOL1         0.0794
      83    O20     21.558856   25.997375   20.379874 O.3        1 MOL1        -0.5486
      84    H40     22.388955   26.026888   20.905842 H          1 MOL1         0.3769
      85    C25     25.137936   17.717597   20.928004 C.3        1 MOL1         0.2972
      86    H41     25.797572   16.867208   20.711923 H          1 MOL1         0.0751
      87    O21     23.771869   17.293190   21.127293 O.3        1 MOL1        -0.3740
      88    C26     25.630255   18.514925   22.163034 C.3        1 MOL1         0.1003
      89    H42     26.606989   18.941205   21.899080 H          1 MOL1         0.0783
      90    O22     25.793676   17.681995   23.319712 O.3        1 MOL1        -0.5519
      91    H43     24.894485   17.343059   23.559337 H          1 MOL1         0.3769
      92    C27     24.667268   19.689021   22.462917 C.3        1 MOL1         0.1053
      93    H44     23.701631   19.266481   22.774805 H          1 MOL1         0.0783
      94    O23     25.221068   20.473852   23.525328 O.3        1 MOL1        -0.5519
      95    H45     25.609894   19.818426   24.148814 H          1 MOL1         0.3769
      96    C28     24.426438   20.566270   21.199589 C.3        1 MOL1         0.1018
      97    H46     25.291005   21.224329   21.039731 H          1 MOL1         0.0783
      98    C29     24.194830   19.731816   19.909550 C.3        1 MOL1         0.1043
      99    H47     23.176050   19.329366   19.932207 H          1 MOL1         0.0783
     100    O24     25.154116   18.647833   19.825666 O.3        1 MOL1        -0.3740
     101    C30     24.342927   20.591179   18.637086 C.3        1 MOL1         0.0138
     102    H48     25.374968   20.959994   18.566739 H          1 MOL1         0.0794
     103    H49     23.679728   21.463573   18.710806 H          1 MOL1         0.0794
     104    O25     24.006905   19.819105   17.483107 O.3        1 MOL1        -0.5486
     105    H50     24.530252   18.989528   17.549599 H          1 MOL1         0.3769
     106    C31     21.343443   14.065533   22.023728 C.3        1 MOL1         0.2972
     107    H51     20.915433   13.099724   22.321818 H          1 MOL1         0.0751
     108    O26     20.368686   14.897440   21.363382 O.3        1 MOL1        -0.3740
     109    C32     21.899163   14.813179   23.263669 C.3        1 MOL1         0.1003
     110    H52     22.683459   14.178023   23.695750 H          1 MOL1         0.0783
     111    O27     20.882542   15.037783   24.253540 O.3        1 MOL1        -0.5519
     112    H53     20.078852   14.539392   23.966508 H          1 MOL1         0.3769
     113    C33     22.544001   16.158690   22.859287 C.3        1 MOL1         0.1053
     114    H54     21.743922   16.826647   22.518880 H          1 MOL1         0.0783
     115    O28     23.180025   16.724246   24.008666 O.3        1 MOL1        -0.5519
     116    H55     22.509251   16.644662   24.724359 H          1 MOL1         0.3769
     117    C34     23.563672   15.987680   21.702429 C.3        1 MOL1         0.1018
     118    H56     24.492037   15.565454   22.109421 H          1 MOL1         0.0783
     119    C35     23.025890   15.078144   20.561144 C.3        1 MOL1         0.1043
     120    H57     22.258929   15.637759   20.008617 H          1 MOL1         0.0783
     121    O29     22.444517   13.868329   21.111300 O.3        1 MOL1        -0.3740
     122    C36     24.115372   14.661309   19.548341 C.3        1 MOL1         0.0138
     123    H58     24.491596   15.558414   19.038867 H          1 MOL1         0.0794
     124    H59     23.659385   14.018575   18.783430 H          1 MOL1         0.0794
     125    O30     25.190254   13.975639   20.197202 O.3        1 MOL1        -0.5486
     126    H60     24.788000   13.204570   20.655775 H          1 MOL1         0.3769
     127    C1      20.417952   18.492782   20.409375 C.3        1 MOL1        -0.1693
     128    H1      21.131750   19.152531   20.918466 H          1 MOL1         0.0829
     129    H2      20.368623   17.543007   20.949307 H          1 MOL1         0.0829
     130    C2      20.592447   18.389192   18.859330 C.3        1 MOL1        -0.1768
     131    H3      21.612706   18.480057   18.473647 H          1 MOL1         0.0829
     132    H4      20.125355   17.509093   18.401718 H          1 MOL1         0.0829
     133    C3      19.723999   19.681337   18.788628 C.3        1 MOL1         0.1211
     134    H5      20.296122   20.608734   18.926620 H          1 MOL1         0.0786
     135    C4      19.041326   19.152877   20.086851 C.3        1 MOL1        -0.1768
     136    H6      18.705885   19.906226   20.806102 H          1 MOL1         0.0829
     137    H7      18.225489   18.444846   19.906683 H          1 MOL1         0.0829
     138    O1      18.891395   19.761825   17.652982 O.3        1 MOL1        -0.5515
     139    H8      18.373385   20.599971   17.690452 H          1 MOL1         0.3773
@<TRIPOS>BOND
    1     1     2    1
    2     1     3    1
    3     1     4    1
    4     4     5    1
    5     4     6    1
    6     6     7    1
    7     4     8    1
    8     8     9    1
    9     8    10    1
   10    10    11    1
   11     8    12    1
   12    12    13    1
   13    12    14    1
   14    14    15    1
   15     1    16    1
   16    14    16    1
   17    14    17    1
   18    17    18    1
   19    17    19    1
   20    17    20    1
   21    20    21    1
   22    22    23    1
   23    22    24    1
   24    22    25    1
   25    25    26    1
   26    25    27    1
   27    27    28    1
   28    25    29    1
   29    29    30    1
   30    29    31    1
   31    31    32    1
   32     3    33    1
   33    29    33    1
   34    33    34    1
   35    33    35    1
   36    35    36    1
   37    22    37    1
   38    35    37    1
   39    35    38    1
   40    38    39    1
   41    38    40    1
   42    38    41    1
   43    41    42    1
   44    43    44    1
   45    43    45    1
   46    43    46    1
   47    46    47    1
   48    46    48    1
   49    48    49    1
   50    46    50    1
   51    50    51    1
   52    50    52    1
   53    52    53    1
   54    24    54    1
   55    50    54    1
   56    54    55    1
   57    54    56    1
   58    56    57    1
   59    43    58    1
   60    56    58    1
   61    56    59    1
   62    59    60    1
   63    59    61    1
   64    59    62    1
   65    62    63    1
   66    64    65    1
   67    64    66    1
   68    64    67    1
   69    67    68    1
   70    67    69    1
   71    69    70    1
   72    67    71    1
   73    71    72    1
   74    71    73    1
   75    73    74    1
   76    45    75    1
   77    71    75    1
   78    75    76    1
   79    75    77    1
   80    77    78    1
   81    64    79    1
   82    77    79    1
   83    77    80    1
   84    80    81    1
   85    80    82    1
   86    80    83    1
   87    83    84    1
   88    85    86    1
   89    85    87    1
   90    85    88    1
   91    88    89    1
   92    88    90    1
   93    90    91    1
   94    88    92    1
   95    92    93    1
   96    92    94    1
   97    94    95    1
   98    66    96    1
   99    92    96    1
  100    96    97    1
  101    96    98    1
  102    98    99    1
  103    85   100    1
  104    98   100    1
  105    98   101    1
  106   101   102    1
  107   101   103    1
  108   101   104    1
  109   104   105    1
  110   106   107    1
  111    12   108    1
  112   106   108    1
  113   106   109    1
  114   109   110    1
  115   109   111    1
  116   111   112    1
  117   109   113    1
  118   113   114    1
  119   113   115    1
  120   115   116    1
  121    87   117    1
  122   113   117    1
  123   117   118    1
  124   117   119    1
  125   119   120    1
  126   106   121    1
  127   119   121    1
  128   119   122    1
  129   122   123    1
  130   122   124    1
  131   122   125    1
  132   125   126    1
  133   127   128    1
  134   127   129    1
  135   127   130    1
  136   130   131    1
  137   130   132    1
  138   130   133    1
  139   133   134    1
  140   127   135    1
  141   133   135    1
  142   135   136    1
  143   135   137    1
  144   133   138    1
  145   138   139    1
@<TRIPOS>SUBSTRUCTURE
       1 MOL1            1 RESIDUE      1      MOL     
       2 MOL1          139 RESIDUE      1      MOL     
@<SCITEGIC>MOL_PROPERTY
VM2 Rank
SciTegic.value.IntegerValue
7

@<SCITEGIC>MOL_PROPERTY
Conf_Id
SciTegic.value.IntegerValue
19343

@<SCITEGIC>MOL_PROPERTY
Probability
SciTegic.value.DoubleValue
0.75

@<SCITEGIC>MOL_PROPERTY
Sum Probability
SciTegic.value.DoubleValue
8.35

@<SCITEGIC>MOL_PROPERTY
Delta G
SciTegic.value.DoubleValue
0.541

@<SCITEGIC>MOL_PROPERTY
G
SciTegic.value.DoubleValue
538.610

@<SCITEGIC>MOL_PROPERTY
E
SciTegic.value.DoubleValue
359.335

@<SCITEGIC>MOL_PROPERTY
-TS
SciTegic.value.DoubleValue
179.274

@<SCITEGIC>MOL_PROPERTY
U+W
SciTegic.value.DoubleValue
236.824

@<SCITEGIC>MOL_PROPERTY
U
SciTegic.value.DoubleValue
270.318

@<SCITEGIC>MOL_PROPERTY
W
SciTegic.value.DoubleValue
-33.494

@<SCITEGIC>MOL_PROPERTY
W(PB)
SciTegic.value.DoubleValue
-39.552

@<SCITEGIC>MOL_PROPERTY
W(SA)
SciTegic.value.DoubleValue
6.057

@<SCITEGIC>MOL_PROPERTY
Valence
SciTegic.value.DoubleValue
149.968

@<SCITEGIC>MOL_PROPERTY
Coulomb
SciTegic.value.DoubleValue
137.192

@<SCITEGIC>MOL_PROPERTY
VdW
SciTegic.value.DoubleValue
-16.842

@<SCITEGIC>MOL_PROPERTY
VdW6
SciTegic.value.DoubleValue
-163.226

@<SCITEGIC>MOL_PROPERTY
VdW12
SciTegic.value.DoubleValue
146.384

@<SCITEGIC>MOL_PROPERTY
Bond
SciTegic.value.DoubleValue
4.589

@<SCITEGIC>MOL_PROPERTY
Angle
SciTegic.value.DoubleValue
11.126

@<SCITEGIC>MOL_PROPERTY
Pdih
SciTegic.value.DoubleValue
134.254

@<SCITEGIC>MOL_PROPERTY
Idih
SciTegic.value.DoubleValue
0.000

@<SCITEGIC>MOL_PROPERTY
Tether
SciTegic.value.DoubleValue
0.000

@<TRIPOS>MOLECULE
CD_guest-s16_vm2_rndm.mol2 : vm2 host+ligand conformer 8
         139         145           2
SMALL
USER_CHARGES
 
@<TRIPOS>ATOM
       1    C1      16.232936   14.961756   20.637242 C.3        1 MOL1         0.2972
       2    H1      15.176022   14.824393   20.377253 H          1 MOL1         0.0751
       3    O1      16.550500   16.357233   20.845624 O.3        1 MOL1        -0.3740
       4    C2      16.616180   14.121866   21.883266 C.3        1 MOL1         0.1003
       5    H2      16.495819   13.066890   21.603989 H          1 MOL1         0.0783
       6    O2      15.767067   14.394561   23.006817 O.3        1 MOL1        -0.5519
       7    H3      15.968167   15.320066   23.296006 H          1 MOL1         0.3769
       8    C3      18.102853   14.345776   22.249436 C.3        1 MOL1         0.1053
       9    H4      18.218233   15.385880   22.584568 H          1 MOL1         0.0783
      10    O3      18.454503   13.449851   23.309990 O.3        1 MOL1        -0.5519
      11    H5      17.671686   13.441268   23.906882 H          1 MOL1         0.3769
      12    C4      19.035121   14.130853   21.022972 C.3        1 MOL1         0.1018
      13    H6      19.188091   13.055774   20.858908 H          1 MOL1         0.0783
      14    C5      18.484628   14.758843   19.713577 C.3        1 MOL1         0.1043
      15    H7      18.643070   15.840915   19.750665 H          1 MOL1         0.0783
      16    O4      17.070376   14.478253   19.566087 O.3        1 MOL1        -0.3740
      17    C6      19.217497   14.221918   18.468310 C.3        1 MOL1         0.0138
      18    H8      18.942108   13.171131   18.306331 H          1 MOL1         0.0794
      19    H9      20.301406   14.260651   18.642409 H          1 MOL1         0.0794
      20    O5      18.883004   15.016153   17.329888 O.3        1 MOL1        -0.5486
      21    H10     17.903576   14.981145   17.245679 H          1 MOL1         0.3769
      22    C7      15.037784   20.068442   21.922637 C.3        1 MOL1         0.2972
      23    H11     14.419259   20.906122   22.269383 H          1 MOL1         0.0751
      24    O6      16.233660   20.527663   21.262728 O.3        1 MOL1        -0.3740
      25    C8      15.438346   19.165402   23.115821 C.3        1 MOL1         0.1003
      26    H12     14.507487   18.794671   23.564438 H          1 MOL1         0.0783
      27    O7      16.178857   19.895032   24.108092 O.3        1 MOL1        -0.5519
      28    H13     16.046287   20.856060   23.921700 H          1 MOL1         0.3769
      29    C9      16.258864   17.946117   22.634441 C.3        1 MOL1         0.1053
      30    H14     17.228567   18.314153   22.272904 H          1 MOL1         0.0783
      31    O8      16.458758   17.070321   23.747083 O.3        1 MOL1        -0.5519
      32    H15     16.764625   17.661068   24.472271 H          1 MOL1         0.3769
      33    C10     15.556417   17.197741   21.468138 C.3        1 MOL1         0.1018
      34    H16     14.715910   16.615084   21.867902 H          1 MOL1         0.0783
      35    C11     15.038899   18.171933   20.373085 C.3        1 MOL1         0.1043
      36    H17     15.899546   18.569898   19.819102 H          1 MOL1         0.0783
      37    O9      14.296105   19.251405   20.993257 O.3        1 MOL1        -0.3740
      38    C12     14.094795   17.485213   19.364966 C.3        1 MOL1         0.0138
      39    H18     13.206270   17.114682   19.893577 H          1 MOL1         0.0794
      40    H19     14.605284   16.622953   18.916365 H          1 MOL1         0.0794
      41    O10     13.721445   18.410753   18.342381 O.3        1 MOL1        -0.5486
      42    H20     13.439605   19.231290   18.806837 H          1 MOL1         0.3769
      43    C13     18.432589   23.991804   20.760152 C.3        1 MOL1         0.2972
      44    H21     18.824099   24.989256   20.521911 H          1 MOL1         0.0751
      45    O11     19.497579   23.061218   21.048122 O.3        1 MOL1        -0.3740
      46    C14     17.441827   24.045983   21.953244 C.3        1 MOL1         0.1003
      47    H22     16.588896   24.658630   21.633106 H          1 MOL1         0.0783
      48    O12     18.027081   24.648807   23.116492 O.3        1 MOL1        -0.5519
      49    H23     18.778591   24.067141   23.395718 H          1 MOL1         0.3769
      50    C15     16.909824   22.629199   22.279628 C.3        1 MOL1         0.1053
      51    H24     17.753902   22.020892   22.634269 H          1 MOL1         0.0783
      52    O13     15.920108   22.731592   23.309803 O.3        1 MOL1        -0.5519
      53    H25     16.268819   23.412381   23.929571 H          1 MOL1         0.3769
      54    C16     16.318239   21.945200   21.014647 C.3        1 MOL1         0.1018
      55    H26     15.331108   22.371313   20.791329 H          1 MOL1         0.0783
      56    C17     17.228063   22.104674   19.766120 C.3        1 MOL1         0.1043
      57    H27     18.087922   21.436795   19.886841 H          1 MOL1         0.0783
      58    O14     17.690706   23.473354   19.636468 O.3        1 MOL1        -0.3740
      59    C18     16.514776   21.718160   18.451373 C.3        1 MOL1         0.0138
      60    H28     16.175523   20.675623   18.519183 H          1 MOL1         0.0794
      61    H29     17.238317   21.775577   17.627268 H          1 MOL1         0.0794
      62    O15     15.403774   22.583380   18.197631 O.3        1 MOL1        -0.5486
      63    H30     15.760227   23.499163   18.226532 H          1 MOL1         0.3769
      64    C19     23.491348   22.727687   22.064938 C.3        1 MOL1         0.2972
      65    H31     24.532980   22.871776   22.379725 H          1 MOL1         0.0751
      66    O16     23.291193   21.434901   21.457318 O.3        1 MOL1        -0.3740
      67    C20     22.533443   22.882469   23.275163 C.3        1 MOL1         0.1003
      68    H32     22.646699   23.909200   23.646992 H          1 MOL1         0.0783
      69    O17     22.847971   21.965907   24.335276 O.3        1 MOL1        -0.5519
      70    H33     23.661491   21.473276   24.066763 H          1 MOL1         0.3769
      71    C21     21.064415   22.693276   22.836935 C.3        1 MOL1         0.1053
      72    H34     20.941953   21.646181   22.536070 H          1 MOL1         0.0783
      73    O18     20.211135   22.976894   23.949209 O.3        1 MOL1        -0.5519
      74    H35     20.622733   22.495257   24.702374 H          1 MOL1         0.3769
      75    C22     20.702732   23.598245   21.630011 C.3        1 MOL1         0.1018
      76    H36     20.561194   24.625705   21.990729 H          1 MOL1         0.0783
      77    C23     21.790408   23.573360   20.517538 C.3        1 MOL1         0.1043
      78    H37     21.727697   22.607328   19.998829 H          1 MOL1         0.0783
      79    O19     23.112558   23.728983   21.096037 O.3        1 MOL1        -0.3740
      80    C24     21.604667   24.681174   19.457094 C.3        1 MOL1         0.0138
      81    H38     20.657203   24.513980   18.927662 H          1 MOL1         0.0794
      82    H39     22.411257   24.599880   18.716199 H          1 MOL1         0.0794
      83    O20     21.611214   25.979254   20.058271 O.3        1 MOL1        -0.5486
      84    H40     22.466859   26.057118   20.536224 H          1 MOL1         0.3769
      85    C25     25.057099   17.746251   20.954595 C.3        1 MOL1         0.2972
      86    H41     25.699678   16.882799   20.739247 H          1 MOL1         0.0751
      87    O21     23.674843   17.349865   21.097342 O.3        1 MOL1        -0.3740
      88    C26     25.542538   18.501773   22.221506 C.3        1 MOL1         0.1003
      89    H42     26.552333   18.872041   22.001163 H          1 MOL1         0.0783
      90    O22     25.609151   17.651604   23.375644 O.3        1 MOL1        -0.5519
      91    H43     24.677159   17.396743   23.593462 H          1 MOL1         0.3769
      92    C27     24.643520   19.727460   22.509601 C.3        1 MOL1         0.1053
      93    H44     23.652282   19.359454   22.809461 H          1 MOL1         0.0783
      94    O23     25.227671   20.484398   23.574662 O.3        1 MOL1        -0.5519
      95    H45     25.548033   19.813031   24.219376 H          1 MOL1         0.3769
      96    C28     24.463981   20.621994   21.253225 C.3        1 MOL1         0.1018
      97    H46     25.361647   21.237234   21.105509 H          1 MOL1         0.0783
      98    C29     24.203628   19.807877   19.957066 C.3        1 MOL1         0.1043
      99    H47     23.171601   19.438322   19.974225 H          1 MOL1         0.0783
     100    O24     25.127630   18.694561   19.870057 O.3        1 MOL1        -0.3740
     101    C30     24.389062   20.672648   18.693191 C.3        1 MOL1         0.0138
     102    H48     25.439253   20.985042   18.618303 H          1 MOL1         0.0794
     103    H49     23.775907   21.579547   18.781930 H          1 MOL1         0.0794
     104    O25     24.001335   19.933918   17.533770 O.3        1 MOL1        -0.5486
     105    H50     24.477871   19.075608   17.584667 H          1 MOL1         0.3769
     106    C31     21.264634   14.088851   22.049976 C.3        1 MOL1         0.2972
     107    H51     20.876615   13.122659   22.397086 H          1 MOL1         0.0751
     108    O26     20.283523   14.806928   21.276916 O.3        1 MOL1        -0.3740
     109    C32     21.706134   14.960722   23.256188 C.3        1 MOL1         0.1003
     110    H52     22.488065   14.400344   23.785167 H          1 MOL1         0.0783
     111    O27     20.622145   15.217081   24.163284 O.3        1 MOL1        -0.5519
     112    H53     19.922686   14.544314   23.981308 H          1 MOL1         0.3769
     113    C33     22.315807   16.299704   22.781373 C.3        1 MOL1         0.1053
     114    H54     21.515238   16.896645   22.323545 H          1 MOL1         0.0783
     115    O28     22.847970   16.987604   23.917683 O.3        1 MOL1        -0.5519
     116    H55     22.131588   16.938474   24.590534 H          1 MOL1         0.3769
     117    C34     23.422907   16.074351   21.721359 C.3        1 MOL1         0.1018
     118    H56     24.315847   15.679851   22.223538 H          1 MOL1         0.0783
     119    C35     22.976276   15.086090   20.608160 C.3        1 MOL1         0.1043
     120    H57     22.213536   15.579405   19.991220 H          1 MOL1         0.0783
     121    O29     22.421192   13.888192   21.208607 O.3        1 MOL1        -0.3740
     122    C36     24.126794   14.654785   19.671464 C.3        1 MOL1         0.0138
     123    H58     24.484902   15.532817   19.117720 H          1 MOL1         0.0794
     124    H59     23.733641   13.942387   18.933852 H          1 MOL1         0.0794
     125    O30     25.201917   14.064740   20.408023 O.3        1 MOL1        -0.5486
     126    H60     24.816373   13.303855   20.896865 H          1 MOL1         0.3769
     127    C1      20.235794   19.590171   20.692198 C.3        1 MOL1        -0.1693
     128    H1      21.157715   19.366138   21.244242 H          1 MOL1         0.0829
     129    H2      19.680048   20.362880   21.232607 H          1 MOL1         0.0829
     130    C2      19.401174   18.337990   20.281047 C.3        1 MOL1        -0.1768
     131    H3      19.452056   17.494317   20.976684 H          1 MOL1         0.0829
     132    H4      18.349518   18.545326   20.050319 H          1 MOL1         0.0829
     133    C3      20.332173   18.265951   19.031860 C.3        1 MOL1         0.1211
     134    H5      21.285263   17.749927   19.209883 H          1 MOL1         0.0786
     135    C4      20.423380   19.816555   19.156089 C.3        1 MOL1        -0.1768
     136    H6      21.368930   20.266346   18.839292 H          1 MOL1         0.0829
     137    H7      19.605909   20.350885   18.660107 H          1 MOL1         0.0829
     138    O1      19.724923   17.817594   17.840394 O.3        1 MOL1        -0.5515
     139    H8      19.600350   16.841194   17.884075 H          1 MOL1         0.3773
@<TRIPOS>BOND
    1     1     2    1
    2     1     3    1
    3     1     4    1
    4     4     5    1
    5     4     6    1
    6     6     7    1
    7     4     8    1
    8     8     9    1
    9     8    10    1
   10    10    11    1
   11     8    12    1
   12    12    13    1
   13    12    14    1
   14    14    15    1
   15     1    16    1
   16    14    16    1
   17    14    17    1
   18    17    18    1
   19    17    19    1
   20    17    20    1
   21    20    21    1
   22    22    23    1
   23    22    24    1
   24    22    25    1
   25    25    26    1
   26    25    27    1
   27    27    28    1
   28    25    29    1
   29    29    30    1
   30    29    31    1
   31    31    32    1
   32     3    33    1
   33    29    33    1
   34    33    34    1
   35    33    35    1
   36    35    36    1
   37    22    37    1
   38    35    37    1
   39    35    38    1
   40    38    39    1
   41    38    40    1
   42    38    41    1
   43    41    42    1
   44    43    44    1
   45    43    45    1
   46    43    46    1
   47    46    47    1
   48    46    48    1
   49    48    49    1
   50    46    50    1
   51    50    51    1
   52    50    52    1
   53    52    53    1
   54    24    54    1
   55    50    54    1
   56    54    55    1
   57    54    56    1
   58    56    57    1
   59    43    58    1
   60    56    58    1
   61    56    59    1
   62    59    60    1
   63    59    61    1
   64    59    62    1
   65    62    63    1
   66    64    65    1
   67    64    66    1
   68    64    67    1
   69    67    68    1
   70    67    69    1
   71    69    70    1
   72    67    71    1
   73    71    72    1
   74    71    73    1
   75    73    74    1
   76    45    75    1
   77    71    75    1
   78    75    76    1
   79    75    77    1
   80    77    78    1
   81    64    79    1
   82    77    79    1
   83    77    80    1
   84    80    81    1
   85    80    82    1
   86    80    83    1
   87    83    84    1
   88    85    86    1
   89    85    87    1
   90    85    88    1
   91    88    89    1
   92    88    90    1
   93    90    91    1
   94    88    92    1
   95    92    93    1
   96    92    94    1
   97    94    95    1
   98    66    96    1
   99    92    96    1
  100    96    97    1
  101    96    98    1
  102    98    99    1
  103    85   100    1
  104    98   100    1
  105    98   101    1
  106   101   102    1
  107   101   103    1
  108   101   104    1
  109   104   105    1
  110   106   107    1
  111    12   108    1
  112   106   108    1
  113   106   109    1
  114   109   110    1
  115   109   111    1
  116   111   112    1
  117   109   113    1
  118   113   114    1
  119   113   115    1
  120   115   116    1
  121    87   117    1
  122   113   117    1
  123   117   118    1
  124   117   119    1
  125   119   120    1
  126   106   121    1
  127   119   121    1
  128   119   122    1
  129   122   123    1
  130   122   124    1
  131   122   125    1
  132   125   126    1
  133   127   128    1
  134   127   129    1
  135   127   130    1
  136   130   131    1
  137   130   132    1
  138   130   133    1
  139   133   134    1
  140   127   135    1
  141   133   135    1
  142   135   136    1
  143   135   137    1
  144   133   138    1
  145   138   139    1
@<TRIPOS>SUBSTRUCTURE
       1 MOL1            1 RESIDUE      1      MOL     
       2 MOL1          139 RESIDUE      1      MOL     
@<SCITEGIC>MOL_PROPERTY
VM2 Rank
SciTegic.value.IntegerValue
8

@<SCITEGIC>MOL_PROPERTY
Conf_Id
SciTegic.value.IntegerValue
24321

@<SCITEGIC>MOL_PROPERTY
Probability
SciTegic.value.DoubleValue
0.70

@<SCITEGIC>MOL_PROPERTY
Sum Probability
SciTegic.value.DoubleValue
9.05

@<SCITEGIC>MOL_PROPERTY
Delta G
SciTegic.value.DoubleValue
0.578

@<SCITEGIC>MOL_PROPERTY
G
SciTegic.value.DoubleValue
538.647

@<SCITEGIC>MOL_PROPERTY
E
SciTegic.value.DoubleValue
359.370

@<SCITEGIC>MOL_PROPERTY
-TS
SciTegic.value.DoubleValue
179.278

@<SCITEGIC>MOL_PROPERTY
U+W
SciTegic.value.DoubleValue
236.858

@<SCITEGIC>MOL_PROPERTY
U
SciTegic.value.DoubleValue
270.491

@<SCITEGIC>MOL_PROPERTY
W
SciTegic.value.DoubleValue
-33.633

@<SCITEGIC>MOL_PROPERTY
W(PB)
SciTegic.value.DoubleValue
-39.667

@<SCITEGIC>MOL_PROPERTY
W(SA)
SciTegic.value.DoubleValue
6.034

@<SCITEGIC>MOL_PROPERTY
Valence
SciTegic.value.DoubleValue
150.385

@<SCITEGIC>MOL_PROPERTY
Coulomb
SciTegic.value.DoubleValue
137.967

@<SCITEGIC>MOL_PROPERTY
VdW
SciTegic.value.DoubleValue
-17.861

@<SCITEGIC>MOL_PROPERTY
VdW6
SciTegic.value.DoubleValue
-164.107

@<SCITEGIC>MOL_PROPERTY
VdW12
SciTegic.value.DoubleValue
146.246

@<SCITEGIC>MOL_PROPERTY
Bond
SciTegic.value.DoubleValue
4.538

@<SCITEGIC>MOL_PROPERTY
Angle
SciTegic.value.DoubleValue
11.137

@<SCITEGIC>MOL_PROPERTY
Pdih
SciTegic.value.DoubleValue
134.710

@<SCITEGIC>MOL_PROPERTY
Idih
SciTegic.value.DoubleValue
0.000

@<SCITEGIC>MOL_PROPERTY
Tether
SciTegic.value.DoubleValue
0.000

