@<TRIPOS>MOLECULE
CD_guest-3_vm2_rndm.mol2 : vm2 host+ligand conformer 1
         155         160           2
SMALL
USER_CHARGES
 
@<TRIPOS>ATOM
       1    C1      16.353333   15.183475   21.741380 C.3        1 MOL1         0.2972
       2    H1      15.278043   15.076420   21.933940 H          1 MOL1         0.0751
       3    O1      16.685913   16.515615   21.299809 O.3        1 MOL1        -0.3740
       4    C2      17.163917   14.859638   23.021644 C.3        1 MOL1         0.1003
       5    H2      16.955591   13.813142   23.279801 H          1 MOL1         0.0783
       6    O2      16.774954   15.698526   24.120371 O.3        1 MOL1        -0.5519
       7    H3      15.971496   16.198269   23.835426 H          1 MOL1         0.3769
       8    C3      18.681386   14.995707   22.757977 C.3        1 MOL1         0.1053
       9    H4      18.901576   16.054130   22.580393 H          1 MOL1         0.0783
      10    O3      19.396363   14.550789   23.913558 O.3        1 MOL1        -0.5519
      11    H5      18.928172   14.972578   24.669201 H          1 MOL1         0.3769
      12    C4      19.123113   14.194988   21.506033 C.3        1 MOL1         0.1018
      13    H6      19.194519   13.132711   21.775426 H          1 MOL1         0.0783
      14    C5      18.159612   14.377627   20.298078 C.3        1 MOL1         0.1043
      15    H7      18.326487   15.378567   19.878912 H          1 MOL1         0.0783
      16    O4      16.778049   14.255113   20.721463 O.3        1 MOL1        -0.3740
      17    C6      18.399728   13.355336   19.165060 C.3        1 MOL1         0.0138
      18    H8      19.404458   13.510497   18.749934 H          1 MOL1         0.0794
      19    H9      17.680058   13.546717   18.357855 H          1 MOL1         0.0794
      20    O5      18.265460   12.013597   19.642567 O.3        1 MOL1        -0.5486
      21    H10     17.361018   11.945248   20.021937 H          1 MOL1         0.3769
      22    C7      14.867919   20.236617   20.825651 C.3        1 MOL1         0.2972
      23    H11     14.191350   21.057794   20.555328 H          1 MOL1         0.0751
      24    O6      16.134353   20.723393   21.308285 O.3        1 MOL1        -0.3740
      25    C8      14.246528   19.350164   21.934724 C.3        1 MOL1         0.1003
      26    H12     13.299325   18.955739   21.544435 H          1 MOL1         0.0783
      27    O7      13.983204   20.115239   23.122055 O.3        1 MOL1        -0.5519
      28    H13     14.795720   20.646269   23.321307 H          1 MOL1         0.3769
      29    C9      15.164762   18.146110   22.263470 C.3        1 MOL1         0.1053
      30    H14     16.076562   18.533665   22.738529 H          1 MOL1         0.0783
      31    O8      14.478591   17.275956   23.169429 O.3        1 MOL1        -0.5519
      32    H15     14.037181   17.877449   23.811594 H          1 MOL1         0.3769
      33    C10     15.580373   17.381109   20.976439 C.3        1 MOL1         0.1018
      34    H16     14.725768   16.812389   20.586094 H          1 MOL1         0.0783
      35    C11     16.084928   18.342487   19.869427 C.3        1 MOL1         0.1043
      36    H17     17.049850   18.761806   20.176777 H          1 MOL1         0.0783
      37    O9      15.115509   19.399749   19.676611 O.3        1 MOL1        -0.3740
      38    C12     16.277205   17.630204   18.514609 C.3        1 MOL1         0.0138
      39    H18     15.301369   17.297375   18.136493 H          1 MOL1         0.0794
      40    H19     16.900856   16.738660   18.657658 H          1 MOL1         0.0794
      41    O10     16.904239   18.514556   17.583713 O.3        1 MOL1        -0.5486
      42    H20     16.339292   19.316274   17.545533 H          1 MOL1         0.3769
      43    C13     18.360161   24.162654   21.753639 C.3        1 MOL1         0.2972
      44    H21     18.751471   25.181840   21.866105 H          1 MOL1         0.0751
      45    O11     19.415628   23.196826   21.572656 O.3        1 MOL1        -0.3740
      46    C14     17.545398   23.764540   23.008795 C.3        1 MOL1         0.1003
      47    H22     16.692257   24.451463   23.082422 H          1 MOL1         0.0783
      48    O12     18.343785   23.873379   24.197882 O.3        1 MOL1        -0.5519
      49    H23     19.292500   23.839128   23.918368 H          1 MOL1         0.3769
      50    C15     16.993055   22.329141   22.859731 C.3        1 MOL1         0.1053
      51    H24     17.849245   21.645454   22.874446 H          1 MOL1         0.0783
      52    O13     16.122773   22.032621   23.956237 O.3        1 MOL1        -0.5519
      53    H25     16.599083   22.361543   24.751103 H          1 MOL1         0.3769
      54    C16     16.234080   22.143725   21.521434 C.3        1 MOL1         0.1018
      55    H26     15.246412   22.613689   21.619685 H          1 MOL1         0.0783
      56    C17     16.991793   22.744714   20.302057 C.3        1 MOL1         0.1043
      57    H27     17.841101   22.088815   20.068725 H          1 MOL1         0.0783
      58    O14     17.476584   24.075233   20.616535 O.3        1 MOL1        -0.3740
      59    C18     16.125031   22.852678   19.027786 C.3        1 MOL1         0.0138
      60    H28     15.844959   21.844441   18.696450 H          1 MOL1         0.0794
      61    H29     16.728310   23.301715   18.227379 H          1 MOL1         0.0794
      62    O15     14.952810   23.637203   19.265694 O.3        1 MOL1        -0.5486
      63    H30     15.267125   24.514362   19.579031 H          1 MOL1         0.3769
      64    C19     23.484770   22.762682   20.951108 C.3        1 MOL1         0.2972
      65    H31     24.545077   22.886450   20.695473 H          1 MOL1         0.0751
      66    O16     23.161294   21.378057   21.197699 O.3        1 MOL1        -0.3740
      67    C20     23.102003   23.623865   22.185862 C.3        1 MOL1         0.1003
      68    H32     23.269088   24.673104   21.909615 H          1 MOL1         0.0783
      69    O17     23.907893   23.316913   23.332942 O.3        1 MOL1        -0.5519
      70    H33     23.717788   22.375788   23.576145 H          1 MOL1         0.3769
      71    C21     21.600166   23.453845   22.516023 C.3        1 MOL1         0.1053
      72    H34     21.435587   22.414947   22.834809 H          1 MOL1         0.0783
      73    O18     21.235550   24.347726   23.572042 O.3        1 MOL1        -0.5519
      74    H35     21.968808   24.287236   24.224780 H          1 MOL1         0.3769
      75    C22     20.719808   23.724236   21.270030 C.3        1 MOL1         0.1018
      76    H36     20.694210   24.803583   21.069001 H          1 MOL1         0.0783
      77    C23     21.233287   22.990810   20.002675 C.3        1 MOL1         0.1043
      78    H37     21.019880   21.921509   20.105776 H          1 MOL1         0.0783
      79    O19     22.659282   23.212228   19.855054 O.3        1 MOL1        -0.3740
      80    C24     20.547634   23.496265   18.716353 C.3        1 MOL1         0.0138
      81    H38     20.804693   24.552190   18.558633 H          1 MOL1         0.0794
      82    H39     19.458737   23.432456   18.834953 H          1 MOL1         0.0794
      83    O20     20.960586   22.706929   17.599342 O.3        1 MOL1        -0.5486
      84    H40     21.942308   22.725949   17.602198 H          1 MOL1         0.3769
      85    C25     24.824969   17.684872   22.072909 C.3        1 MOL1         0.2972
      86    H41     25.472521   16.848240   22.365333 H          1 MOL1         0.0751
      87    O21     23.620214   17.224330   21.428232 O.3        1 MOL1        -0.3740
      88    C26     24.446565   18.532032   23.316066 C.3        1 MOL1         0.1003
      89    H42     25.382533   18.911742   23.746155 H          1 MOL1         0.0783
      90    O22     23.755967   17.750285   24.304249 O.3        1 MOL1        -0.5519
      91    H43     23.884694   16.799594   24.068479 H          1 MOL1         0.3769
      92    C27     23.575042   19.741626   22.912367 C.3        1 MOL1         0.1053
      93    H44     22.611780   19.347867   22.573531 H          1 MOL1         0.0783
      94    O23     23.374605   20.574498   24.057640 O.3        1 MOL1        -0.5519
      95    H45     23.156066   19.945943   24.782392 H          1 MOL1         0.3769
      96    C28     24.206587   20.552752   21.751428 C.3        1 MOL1         0.1018
      97    H46     25.034885   21.152440   22.151513 H          1 MOL1         0.0783
      98    C29     24.723313   19.640499   20.603150 C.3        1 MOL1         0.1043
      99    H47     23.854382   19.233859   20.069119 H          1 MOL1         0.0783
     100    O24     25.513281   18.553005   21.147251 O.3        1 MOL1        -0.3740
     101    C30     25.594690   20.386994   19.568754 C.3        1 MOL1         0.0138
     102    H48     24.977968   21.137356   19.056503 H          1 MOL1         0.0794
     103    H49     25.933591   19.670016   18.808988 H          1 MOL1         0.0794
     104    O25     26.717049   21.015513   20.194266 O.3        1 MOL1        -0.5486
     105    H50     27.214347   20.301169   20.651267 H          1 MOL1         0.3769
     106    C31     21.440406   13.788950   20.801493 C.3        1 MOL1         0.2972
     107    H51     21.035176   12.804100   20.535074 H          1 MOL1         0.0751
     108    O26     20.393819   14.736282   21.098167 O.3        1 MOL1        -0.3740
     109    C32     22.398948   13.695478   22.015448 C.3        1 MOL1         0.1003
     110    H52     23.249401   13.073140   21.707701 H          1 MOL1         0.0783
     111    O27     21.768333   13.085681   23.151268 O.3        1 MOL1        -0.5519
     112    H53     20.977159   13.636574   23.379830 H          1 MOL1         0.3769
     113    C33     22.943604   15.098105   22.379514 C.3        1 MOL1         0.1053
     114    H54     22.104362   15.704105   22.749407 H          1 MOL1         0.0783
     115    O28     23.930725   14.958941   23.407210 O.3        1 MOL1        -0.5519
     116    H55     23.567262   14.277115   24.017253 H          1 MOL1         0.3769
     117    C34     23.548581   15.814300   21.138746 C.3        1 MOL1         0.1018
     118    H56     24.541793   15.398267   20.922632 H          1 MOL1         0.0783
     119    C35     22.671876   15.682553   19.862745 C.3        1 MOL1         0.1043
     120    H57     21.810680   16.356824   19.951701 H          1 MOL1         0.0783
     121    O29     22.217783   14.315579   19.706898 O.3        1 MOL1        -0.3740
     122    C36     23.459100   16.060895   18.589934 C.3        1 MOL1         0.0138
     123    H58     24.267503   15.334013   18.434410 H          1 MOL1         0.0794
     124    H59     23.920975   17.047351   18.729719 H          1 MOL1         0.0794
     125    O30     22.585731   16.088563   17.459337 O.3        1 MOL1        -0.5486
     126    H60     22.124115   15.221604   17.449341 H          1 MOL1         0.3769
     127    C1      18.613871   18.967047   24.530810 C.3        1 MOL1        -0.2427
     128    H1      18.073377   18.018808   24.424619 H          1 MOL1         0.0958
     129    H2      19.005705   19.017379   25.554615 H          1 MOL1         0.0958
     130    H3      17.893851   19.784892   24.404230 H          1 MOL1         0.0958
     131    C2      19.760637   19.065855   23.504229 C.3        1 MOL1        -0.1412
     132    H4      20.470296   18.242725   23.671160 H          1 MOL1         0.0947
     133    H5      20.315084   20.001340   23.664687 H          1 MOL1         0.0947
     134    C3      19.233217   19.015516   22.054668 C.3        1 MOL1        -0.1437
     135    H6      18.651907   18.100732   21.902073 H          1 MOL1         0.0947
     136    H7      18.549577   19.852615   21.880993 H          1 MOL1         0.0947
     137    C4      20.377450   19.075669   21.027076 C.3        1 MOL1        -0.1437
     138    H8      21.053842   18.224750   21.181329 H          1 MOL1         0.0947
     139    H9      20.959746   19.987057   21.199831 H          1 MOL1         0.0947
     140    C5      19.859340   19.070842   19.575120 C.3        1 MOL1        -0.1437
     141    H10     19.305188   18.141195   19.384980 H          1 MOL1         0.0947
     142    H11     19.154299   19.900801   19.428486 H          1 MOL1         0.0947
     143    C6      21.017441   19.197531   18.564127 C.3        1 MOL1        -0.1437
     144    H12     21.723572   18.372166   18.711052 H          1 MOL1         0.0947
     145    H13     21.575244   20.125295   18.748237 H          1 MOL1         0.0947
     146    C7      20.507458   19.184170   17.109320 C.3        1 MOL1        -0.1477
     147    H14     19.927824   18.268813   16.928208 H          1 MOL1         0.0947
     148    H15     19.829690   20.033647   16.948882 H          1 MOL1         0.0947
     149    C8      21.675917   19.258279   16.113230 C.3        1 MOL1         0.0145
     150    H16     22.333183   18.395207   16.255186 H          1 MOL1         0.0921
     151    H17     22.253794   20.168822   16.292900 H          1 MOL1         0.0921
     152    N1      21.220355   19.270353   14.669252 N.4        1 MOL1        -0.5969
     153    H18     20.688297   18.426135   14.434622 H          1 MOL1         0.3603
     154    H19     22.013020   19.318054   14.020411 H          1 MOL1         0.3603
     155    H20     20.617543   20.075539   14.470780 H          1 MOL1         0.3603
@<TRIPOS>BOND
    1     1     2    1
    2     1     3    1
    3     1     4    1
    4     4     5    1
    5     4     6    1
    6     6     7    1
    7     4     8    1
    8     8     9    1
    9     8    10    1
   10    10    11    1
   11     8    12    1
   12    12    13    1
   13    12    14    1
   14    14    15    1
   15     1    16    1
   16    14    16    1
   17    14    17    1
   18    17    18    1
   19    17    19    1
   20    17    20    1
   21    20    21    1
   22    22    23    1
   23    22    24    1
   24    22    25    1
   25    25    26    1
   26    25    27    1
   27    27    28    1
   28    25    29    1
   29    29    30    1
   30    29    31    1
   31    31    32    1
   32     3    33    1
   33    29    33    1
   34    33    34    1
   35    33    35    1
   36    35    36    1
   37    22    37    1
   38    35    37    1
   39    35    38    1
   40    38    39    1
   41    38    40    1
   42    38    41    1
   43    41    42    1
   44    43    44    1
   45    43    45    1
   46    43    46    1
   47    46    47    1
   48    46    48    1
   49    48    49    1
   50    46    50    1
   51    50    51    1
   52    50    52    1
   53    52    53    1
   54    24    54    1
   55    50    54    1
   56    54    55    1
   57    54    56    1
   58    56    57    1
   59    43    58    1
   60    56    58    1
   61    56    59    1
   62    59    60    1
   63    59    61    1
   64    59    62    1
   65    62    63    1
   66    64    65    1
   67    64    66    1
   68    64    67    1
   69    67    68    1
   70    67    69    1
   71    69    70    1
   72    67    71    1
   73    71    72    1
   74    71    73    1
   75    73    74    1
   76    45    75    1
   77    71    75    1
   78    75    76    1
   79    75    77    1
   80    77    78    1
   81    64    79    1
   82    77    79    1
   83    77    80    1
   84    80    81    1
   85    80    82    1
   86    80    83    1
   87    83    84    1
   88    85    86    1
   89    85    87    1
   90    85    88    1
   91    88    89    1
   92    88    90    1
   93    90    91    1
   94    88    92    1
   95    92    93    1
   96    92    94    1
   97    94    95    1
   98    66    96    1
   99    92    96    1
  100    96    97    1
  101    96    98    1
  102    98    99    1
  103    85   100    1
  104    98   100    1
  105    98   101    1
  106   101   102    1
  107   101   103    1
  108   101   104    1
  109   104   105    1
  110   106   107    1
  111    12   108    1
  112   106   108    1
  113   106   109    1
  114   109   110    1
  115   109   111    1
  116   111   112    1
  117   109   113    1
  118   113   114    1
  119   113   115    1
  120   115   116    1
  121    87   117    1
  122   113   117    1
  123   117   118    1
  124   117   119    1
  125   119   120    1
  126   106   121    1
  127   119   121    1
  128   119   122    1
  129   122   123    1
  130   122   124    1
  131   122   125    1
  132   125   126    1
  133   127   128    1
  134   127   129    1
  135   127   130    1
  136   127   131    1
  137   131   132    1
  138   131   133    1
  139   131   134    1
  140   134   135    1
  141   134   136    1
  142   134   137    1
  143   137   138    1
  144   137   139    1
  145   137   140    1
  146   140   141    1
  147   140   142    1
  148   140   143    1
  149   143   144    1
  150   143   145    1
  151   143   146    1
  152   146   147    1
  153   146   148    1
  154   146   149    1
  155   149   150    1
  156   149   151    1
  157   149   152    1
  158   152   153    1
  159   152   154    1
  160   152   155    1
@<TRIPOS>SUBSTRUCTURE
       1 MOL1            1 RESIDUE      1      MOL     
       2 MOL1          155 RESIDUE      1      MOL     
@<SCITEGIC>MOL_PROPERTY
VM2 Rank
SciTegic.value.IntegerValue
1

@<SCITEGIC>MOL_PROPERTY
Conf_Id
SciTegic.value.IntegerValue
22093

@<SCITEGIC>MOL_PROPERTY
Probability
SciTegic.value.DoubleValue
5.07

@<SCITEGIC>MOL_PROPERTY
Sum Probability
SciTegic.value.DoubleValue
5.07

@<SCITEGIC>MOL_PROPERTY
Delta G
SciTegic.value.DoubleValue
0.000

@<SCITEGIC>MOL_PROPERTY
G
SciTegic.value.DoubleValue
574.073

@<SCITEGIC>MOL_PROPERTY
E
SciTegic.value.DoubleValue
367.045

@<SCITEGIC>MOL_PROPERTY
-TS
SciTegic.value.DoubleValue
207.028

@<SCITEGIC>MOL_PROPERTY
U+W
SciTegic.value.DoubleValue
230.225

@<SCITEGIC>MOL_PROPERTY
U
SciTegic.value.DoubleValue
301.701

@<SCITEGIC>MOL_PROPERTY
W
SciTegic.value.DoubleValue
-71.476

@<SCITEGIC>MOL_PROPERTY
W(PB)
SciTegic.value.DoubleValue
-77.641

@<SCITEGIC>MOL_PROPERTY
W(SA)
SciTegic.value.DoubleValue
6.165

@<SCITEGIC>MOL_PROPERTY
Valence
SciTegic.value.DoubleValue
147.105

@<SCITEGIC>MOL_PROPERTY
Coulomb
SciTegic.value.DoubleValue
183.404

@<SCITEGIC>MOL_PROPERTY
VdW
SciTegic.value.DoubleValue
-28.808

@<SCITEGIC>MOL_PROPERTY
VdW6
SciTegic.value.DoubleValue
-180.786

@<SCITEGIC>MOL_PROPERTY
VdW12
SciTegic.value.DoubleValue
151.978

@<SCITEGIC>MOL_PROPERTY
Bond
SciTegic.value.DoubleValue
4.288

@<SCITEGIC>MOL_PROPERTY
Angle
SciTegic.value.DoubleValue
9.230

@<SCITEGIC>MOL_PROPERTY
Pdih
SciTegic.value.DoubleValue
133.587

@<SCITEGIC>MOL_PROPERTY
Idih
SciTegic.value.DoubleValue
0.000

@<SCITEGIC>MOL_PROPERTY
Tether
SciTegic.value.DoubleValue
0.000

@<TRIPOS>MOLECULE
CD_guest-3_vm2_rndm.mol2 : vm2 host+ligand conformer 2
         155         160           2
SMALL
USER_CHARGES
 
@<TRIPOS>ATOM
       1    C1      16.330360   15.172984   21.723256 C.3        1 MOL1         0.2972
       2    H1      15.251630   15.064725   21.894880 H          1 MOL1         0.0751
       3    O1      16.673265   16.513157   21.315107 O.3        1 MOL1        -0.3740
       4    C2      17.116369   14.822128   23.011465 C.3        1 MOL1         0.1003
       5    H2      16.904195   13.770249   23.243455 H          1 MOL1         0.0783
       6    O2      16.705265   15.638466   24.119428 O.3        1 MOL1        -0.5519
       7    H3      15.936621   16.179483   23.813846 H          1 MOL1         0.3769
       8    C3      18.638207   14.964007   22.778969 C.3        1 MOL1         0.1053
       9    H4      18.860609   16.025534   22.625347 H          1 MOL1         0.0783
      10    O3      19.333896   14.498082   23.938347 O.3        1 MOL1        -0.5519
      11    H5      18.850371   14.901943   24.694042 H          1 MOL1         0.3769
      12    C4      19.102526   14.186191   21.521290 C.3        1 MOL1         0.1018
      13    H6      19.168076   13.119979   21.776016 H          1 MOL1         0.0783
      14    C5      18.161999   14.388046   20.298368 C.3        1 MOL1         0.1043
      15    H7      18.335237   15.398473   19.905867 H          1 MOL1         0.0783
      16    O4      16.771296   14.266084   20.691911 O.3        1 MOL1        -0.3740
      17    C6      18.434359   13.398672   19.140072 C.3        1 MOL1         0.0138
      18    H8      19.391619   13.665873   18.672231 H          1 MOL1         0.0794
      19    H9      17.652825   13.526654   18.379175 H          1 MOL1         0.0794
      20    O5      18.476064   12.038080   19.588587 O.3        1 MOL1        -0.5486
      21    H10     18.573367   11.465905   18.796256 H          1 MOL1         0.3769
      22    C7      14.883289   20.238922   20.798320 C.3        1 MOL1         0.2972
      23    H11     14.215215   21.063746   20.518076 H          1 MOL1         0.0751
      24    O6      16.151704   20.719318   21.282134 O.3        1 MOL1        -0.3740
      25    C8      14.248144   19.363742   21.909048 C.3        1 MOL1         0.1003
      26    H12     13.301677   18.972219   21.514095 H          1 MOL1         0.0783
      27    O7      13.979921   20.137023   23.089821 O.3        1 MOL1        -0.5519
      28    H13     14.801638   20.646965   23.305894 H          1 MOL1         0.3769
      29    C9      15.157192   18.156798   22.251611 C.3        1 MOL1         0.1053
      30    H14     16.068585   18.542522   22.728880 H          1 MOL1         0.0783
      31    O8      14.462867   17.294793   23.158983 O.3        1 MOL1        -0.5519
      32    H15     14.022967   17.901184   23.797440 H          1 MOL1         0.3769
      33    C10     15.575398   17.380491   20.973017 C.3        1 MOL1         0.1018
      34    H16     14.719935   16.813198   20.582416 H          1 MOL1         0.0783
      35    C11     16.091767   18.329348   19.860700 C.3        1 MOL1         0.1043
      36    H17     17.059055   18.743160   20.168047 H          1 MOL1         0.0783
      37    O9      15.131135   19.392747   19.656060 O.3        1 MOL1        -0.3740
      38    C12     16.282963   17.604918   18.512216 C.3        1 MOL1         0.0138
      39    H18     15.305239   17.281288   18.130999 H          1 MOL1         0.0794
      40    H19     16.894678   16.706816   18.665092 H          1 MOL1         0.0794
      41    O10     16.925925   18.474796   17.578558 O.3        1 MOL1        -0.5486
      42    H20     16.373249   19.284799   17.534270 H          1 MOL1         0.3769
      43    C13     18.371539   24.153283   21.785648 C.3        1 MOL1         0.2972
      44    H21     18.762891   25.170112   21.917893 H          1 MOL1         0.0751
      45    O11     19.425972   23.194150   21.567822 O.3        1 MOL1        -0.3740
      46    C14     17.572490   23.723222   23.040368 C.3        1 MOL1         0.1003
      47    H22     16.718759   24.406117   23.140055 H          1 MOL1         0.0783
      48    O12     18.383954   23.805615   24.222739 O.3        1 MOL1        -0.5519
      49    H23     19.329269   23.803828   23.930280 H          1 MOL1         0.3769
      50    C15     17.021574   22.290371   22.863749 C.3        1 MOL1         0.1053
      51    H24     17.879334   21.608347   22.853060 H          1 MOL1         0.0783
      52    O13     16.164443   21.967271   23.963056 O.3        1 MOL1        -0.5519
      53    H25     16.650048   22.278279   24.759539 H          1 MOL1         0.3769
      54    C16     16.247729   22.134277   21.530039 C.3        1 MOL1         0.1018
      55    H26     15.259039   22.596882   21.650704 H          1 MOL1         0.0783
      56    C17     16.988935   22.767591   20.316780 C.3        1 MOL1         0.1043
      57    H27     17.837091   22.119967   20.057464 H          1 MOL1         0.0783
      58    O14     17.474235   24.091484   20.657573 O.3        1 MOL1        -0.3740
      59    C18     16.106924   22.903070   19.055647 C.3        1 MOL1         0.0138
      60    H28     15.827789   21.901843   18.702620 H          1 MOL1         0.0794
      61    H29     16.698800   23.374788   18.259787 H          1 MOL1         0.0794
      62    O15     14.933854   23.675585   19.326369 O.3        1 MOL1        -0.5486
      63    H30     15.247541   24.546690   19.656787 H          1 MOL1         0.3769
      64    C19     23.489684   22.771675   20.930656 C.3        1 MOL1         0.2972
      65    H31     24.549319   22.893105   20.671127 H          1 MOL1         0.0751
      66    O16     23.164032   21.387639   21.178982 O.3        1 MOL1        -0.3740
      67    C20     23.112621   23.635093   22.165532 C.3        1 MOL1         0.1003
      68    H32     23.277139   24.683911   21.886143 H          1 MOL1         0.0783
      69    O17     23.924719   23.331675   23.309106 O.3        1 MOL1        -0.5519
      70    H33     23.734071   22.392016   23.557409 H          1 MOL1         0.3769
      71    C21     21.612634   23.464007   22.503310 C.3        1 MOL1         0.1053
      72    H34     21.451083   22.425418   22.824685 H          1 MOL1         0.0783
      73    O18     21.252135   24.358895   23.559867 O.3        1 MOL1        -0.5519
      74    H35     21.989805   24.301933   24.207991 H          1 MOL1         0.3769
      75    C22     20.725284   23.730876   21.261311 C.3        1 MOL1         0.1018
      76    H36     20.691208   24.810212   21.061379 H          1 MOL1         0.0783
      77    C23     21.235585   23.002333   19.989813 C.3        1 MOL1         0.1043
      78    H37     21.022066   21.932839   20.089594 H          1 MOL1         0.0783
      79    O19     22.661184   23.223038   19.837716 O.3        1 MOL1        -0.3740
      80    C24     20.545057   23.512690   18.708066 C.3        1 MOL1         0.0138
      81    H38     20.803671   24.568491   18.552036 H          1 MOL1         0.0794
      82    H39     19.456526   23.451022   18.831889 H          1 MOL1         0.0794
      83    O20     20.951064   22.725563   17.586954 O.3        1 MOL1        -0.5486
      84    H40     21.932813   22.743040   17.584713 H          1 MOL1         0.3769
      85    C25     24.818962   17.692572   22.067531 C.3        1 MOL1         0.2972
      86    H41     25.465979   16.856428   22.362476 H          1 MOL1         0.0751
      87    O21     23.612262   17.230348   21.427632 O.3        1 MOL1        -0.3740
      88    C26     24.444775   18.546527   23.307483 C.3        1 MOL1         0.1003
      89    H42     25.382670   18.925092   23.734374 H          1 MOL1         0.0783
      90    O22     23.753344   17.771543   24.300368 O.3        1 MOL1        -0.5519
      91    H43     23.888929   16.819219   24.075475 H          1 MOL1         0.3769
      92    C27     23.576345   19.757336   22.900519 C.3        1 MOL1         0.1053
      93    H44     22.610709   19.365867   22.565947 H          1 MOL1         0.0783
      94    O23     23.381790   20.595461   24.042917 O.3        1 MOL1        -0.5519
      95    H45     23.161823   19.970612   24.770460 H          1 MOL1         0.3769
      96    C28     24.207638   20.561237   21.734406 C.3        1 MOL1         0.1018
      97    H46     25.039126   21.159829   22.129474 H          1 MOL1         0.0783
      98    C29     24.718178   19.641853   20.589164 C.3        1 MOL1         0.1043
      99    H47     23.846525   19.234857   20.059990 H          1 MOL1         0.0783
     100    O24     25.506866   18.554950   21.136163 O.3        1 MOL1        -0.3740
     101    C30     25.588175   20.381065   19.548408 C.3        1 MOL1         0.0138
     102    H48     24.971918   21.131081   19.035073 H          1 MOL1         0.0794
     103    H49     25.922226   19.659712   18.790640 H          1 MOL1         0.0794
     104    O25     26.714612   21.008926   20.167212 O.3        1 MOL1        -0.5486
     105    H50     27.211122   20.295155   20.625965 H          1 MOL1         0.3769
     106    C31     21.425844   13.789184   20.842465 C.3        1 MOL1         0.2972
     107    H51     21.020898   12.801743   20.585657 H          1 MOL1         0.0751
     108    O26     20.380759   14.734754   21.147329 O.3        1 MOL1        -0.3740
     109    C32     22.392512   13.705307   22.050228 C.3        1 MOL1         0.1003
     110    H52     23.240407   13.079315   21.742884 H          1 MOL1         0.0783
     111    O27     21.766971   13.107045   23.195214 O.3        1 MOL1        -0.5519
     112    H53     20.961297   13.644012   23.406106 H          1 MOL1         0.3769
     113    C33     22.940460   15.110479   22.399543 C.3        1 MOL1         0.1053
     114    H54     22.104430   15.719341   22.771942 H          1 MOL1         0.0783
     115    O28     23.935347   14.977323   23.420557 O.3        1 MOL1        -0.5519
     116    H55     23.575512   14.299941   24.037734 H          1 MOL1         0.3769
     117    C34     23.535552   15.818160   21.149030 C.3        1 MOL1         0.1018
     118    H56     24.526235   15.399271   20.926947 H          1 MOL1         0.0783
     119    C35     22.647276   15.678965   19.881738 C.3        1 MOL1         0.1043
     120    H57     21.786642   16.353646   19.973671 H          1 MOL1         0.0783
     121    O29     22.192273   14.311187   19.737924 O.3        1 MOL1        -0.3740
     122    C36     23.423888   16.048798   18.599887 C.3        1 MOL1         0.0138
     123    H58     24.229117   15.319140   18.440937 H          1 MOL1         0.0794
     124    H59     23.889606   17.034709   18.730363 H          1 MOL1         0.0794
     125    O30     22.540611   16.072783   17.476912 O.3        1 MOL1        -0.5486
     126    H60     22.079422   15.205658   17.473516 H          1 MOL1         0.3769
     127    C1      18.605809   18.886579   24.500549 C.3        1 MOL1        -0.2427
     128    H1      17.867207   19.688273   24.376949 H          1 MOL1         0.0958
     129    H2      18.089390   17.926687   24.379742 H          1 MOL1         0.0958
     130    H3      18.988524   18.935243   25.527880 H          1 MOL1         0.0958
     131    C2      19.757338   19.025127   23.483990 C.3        1 MOL1        -0.1412
     132    H4      20.486785   18.218787   23.647585 H          1 MOL1         0.0947
     133    H5      20.286363   19.972854   23.658071 H          1 MOL1         0.0947
     134    C3      19.241148   18.976368   22.030430 C.3        1 MOL1        -0.1437
     135    H6      18.691546   18.045042   21.861838 H          1 MOL1         0.0947
     136    H7      18.531614   19.792734   21.862541 H          1 MOL1         0.0947
     137    C4      20.388652   19.084588   21.011062 C.3        1 MOL1        -0.1437
     138    H8      21.089057   18.252891   21.160880 H          1 MOL1         0.0947
     139    H9      20.942245   20.011341   21.197043 H          1 MOL1         0.0947
     140    C5      19.878661   19.077418   19.556258 C.3        1 MOL1        -0.1437
     141    H10     19.334823   18.142630   19.361287 H          1 MOL1         0.0947
     142    H11     19.165955   19.900445   19.407279 H          1 MOL1         0.0947
     143    C6      21.041498   19.215407   18.552313 C.3        1 MOL1        -0.1437
     144    H12     21.753959   18.396312   18.704134 H          1 MOL1         0.0947
     145    H13     21.589799   20.148131   18.739469 H          1 MOL1         0.0947
     146    C7      20.540650   19.196126   17.094427 C.3        1 MOL1        -0.1477
     147    H14     19.966932   18.277292   16.911935 H          1 MOL1         0.0947
     148    H15     19.859623   20.041772   16.927748 H          1 MOL1         0.0947
     149    C8      21.715007   19.273105   16.105557 C.3        1 MOL1         0.0145
     150    H16     22.374601   18.412797   16.253441 H          1 MOL1         0.0921
     151    H17     22.288166   20.186268   16.286991 H          1 MOL1         0.0921
     152    N1      21.268530   19.280344   14.658719 N.4        1 MOL1        -0.5969
     153    H18     20.741643   18.433317   14.422496 H          1 MOL1         0.3603
     154    H19     22.065014   19.330179   14.014730 H          1 MOL1         0.3603
     155    H20     20.663462   20.082463   14.454762 H          1 MOL1         0.3603
@<TRIPOS>BOND
    1     1     2    1
    2     1     3    1
    3     1     4    1
    4     4     5    1
    5     4     6    1
    6     6     7    1
    7     4     8    1
    8     8     9    1
    9     8    10    1
   10    10    11    1
   11     8    12    1
   12    12    13    1
   13    12    14    1
   14    14    15    1
   15     1    16    1
   16    14    16    1
   17    14    17    1
   18    17    18    1
   19    17    19    1
   20    17    20    1
   21    20    21    1
   22    22    23    1
   23    22    24    1
   24    22    25    1
   25    25    26    1
   26    25    27    1
   27    27    28    1
   28    25    29    1
   29    29    30    1
   30    29    31    1
   31    31    32    1
   32     3    33    1
   33    29    33    1
   34    33    34    1
   35    33    35    1
   36    35    36    1
   37    22    37    1
   38    35    37    1
   39    35    38    1
   40    38    39    1
   41    38    40    1
   42    38    41    1
   43    41    42    1
   44    43    44    1
   45    43    45    1
   46    43    46    1
   47    46    47    1
   48    46    48    1
   49    48    49    1
   50    46    50    1
   51    50    51    1
   52    50    52    1
   53    52    53    1
   54    24    54    1
   55    50    54    1
   56    54    55    1
   57    54    56    1
   58    56    57    1
   59    43    58    1
   60    56    58    1
   61    56    59    1
   62    59    60    1
   63    59    61    1
   64    59    62    1
   65    62    63    1
   66    64    65    1
   67    64    66    1
   68    64    67    1
   69    67    68    1
   70    67    69    1
   71    69    70    1
   72    67    71    1
   73    71    72    1
   74    71    73    1
   75    73    74    1
   76    45    75    1
   77    71    75    1
   78    75    76    1
   79    75    77    1
   80    77    78    1
   81    64    79    1
   82    77    79    1
   83    77    80    1
   84    80    81    1
   85    80    82    1
   86    80    83    1
   87    83    84    1
   88    85    86    1
   89    85    87    1
   90    85    88    1
   91    88    89    1
   92    88    90    1
   93    90    91    1
   94    88    92    1
   95    92    93    1
   96    92    94    1
   97    94    95    1
   98    66    96    1
   99    92    96    1
  100    96    97    1
  101    96    98    1
  102    98    99    1
  103    85   100    1
  104    98   100    1
  105    98   101    1
  106   101   102    1
  107   101   103    1
  108   101   104    1
  109   104   105    1
  110   106   107    1
  111    12   108    1
  112   106   108    1
  113   106   109    1
  114   109   110    1
  115   109   111    1
  116   111   112    1
  117   109   113    1
  118   113   114    1
  119   113   115    1
  120   115   116    1
  121    87   117    1
  122   113   117    1
  123   117   118    1
  124   117   119    1
  125   119   120    1
  126   106   121    1
  127   119   121    1
  128   119   122    1
  129   122   123    1
  130   122   124    1
  131   122   125    1
  132   125   126    1
  133   127   128    1
  134   127   129    1
  135   127   130    1
  136   127   131    1
  137   131   132    1
  138   131   133    1
  139   131   134    1
  140   134   135    1
  141   134   136    1
  142   134   137    1
  143   137   138    1
  144   137   139    1
  145   137   140    1
  146   140   141    1
  147   140   142    1
  148   140   143    1
  149   143   144    1
  150   143   145    1
  151   143   146    1
  152   146   147    1
  153   146   148    1
  154   146   149    1
  155   149   150    1
  156   149   151    1
  157   149   152    1
  158   152   153    1
  159   152   154    1
  160   152   155    1
@<TRIPOS>SUBSTRUCTURE
       1 MOL1            1 RESIDUE      1      MOL     
       2 MOL1          155 RESIDUE      1      MOL     
@<SCITEGIC>MOL_PROPERTY
VM2 Rank
SciTegic.value.IntegerValue
2

@<SCITEGIC>MOL_PROPERTY
Conf_Id
SciTegic.value.IntegerValue
10654

@<SCITEGIC>MOL_PROPERTY
Probability
SciTegic.value.DoubleValue
2.63

@<SCITEGIC>MOL_PROPERTY
Sum Probability
SciTegic.value.DoubleValue
7.70

@<SCITEGIC>MOL_PROPERTY
Delta G
SciTegic.value.DoubleValue
0.391

@<SCITEGIC>MOL_PROPERTY
G
SciTegic.value.DoubleValue
574.464

@<SCITEGIC>MOL_PROPERTY
E
SciTegic.value.DoubleValue
367.605

@<SCITEGIC>MOL_PROPERTY
-TS
SciTegic.value.DoubleValue
206.859

@<SCITEGIC>MOL_PROPERTY
U+W
SciTegic.value.DoubleValue
230.786

@<SCITEGIC>MOL_PROPERTY
U
SciTegic.value.DoubleValue
303.850

@<SCITEGIC>MOL_PROPERTY
W
SciTegic.value.DoubleValue
-73.064

@<SCITEGIC>MOL_PROPERTY
W(PB)
SciTegic.value.DoubleValue
-79.274

@<SCITEGIC>MOL_PROPERTY
W(SA)
SciTegic.value.DoubleValue
6.210

@<SCITEGIC>MOL_PROPERTY
Valence
SciTegic.value.DoubleValue
146.890

@<SCITEGIC>MOL_PROPERTY
Coulomb
SciTegic.value.DoubleValue
185.789

@<SCITEGIC>MOL_PROPERTY
VdW
SciTegic.value.DoubleValue
-28.829

@<SCITEGIC>MOL_PROPERTY
VdW6
SciTegic.value.DoubleValue
-180.739

@<SCITEGIC>MOL_PROPERTY
VdW12
SciTegic.value.DoubleValue
151.910

@<SCITEGIC>MOL_PROPERTY
Bond
SciTegic.value.DoubleValue
4.304

@<SCITEGIC>MOL_PROPERTY
Angle
SciTegic.value.DoubleValue
9.358

@<SCITEGIC>MOL_PROPERTY
Pdih
SciTegic.value.DoubleValue
133.227

@<SCITEGIC>MOL_PROPERTY
Idih
SciTegic.value.DoubleValue
0.000

@<SCITEGIC>MOL_PROPERTY
Tether
SciTegic.value.DoubleValue
0.000

@<TRIPOS>MOLECULE
CD_guest-3_vm2_rndm.mol2 : vm2 host+ligand conformer 3
         155         160           2
SMALL
USER_CHARGES
 
@<TRIPOS>ATOM
       1    C1      16.354330   15.186559   21.744645 C.3        1 MOL1         0.2972
       2    H1      15.279471   15.080769   21.940234 H          1 MOL1         0.0751
       3    O1      16.686652   16.517162   21.298217 O.3        1 MOL1        -0.3740
       4    C2      17.168057   14.866148   23.023780 C.3        1 MOL1         0.1003
       5    H2      16.959492   13.820683   23.285890 H          1 MOL1         0.0783
       6    O2      16.782913   15.708993   24.120812 O.3        1 MOL1        -0.5519
       7    H3      15.975189   16.203468   23.838864 H          1 MOL1         0.3769
       8    C3      18.684897   15.000146   22.755550 C.3        1 MOL1         0.1053
       9    H4      18.905404   16.057782   22.573529 H          1 MOL1         0.0783
      10    O3      19.402540   14.558821   23.910859 O.3        1 MOL1        -0.5519
      11    H5      18.936732   14.983958   24.666106 H          1 MOL1         0.3769
      12    C4      19.122631   14.194822   21.505158 C.3        1 MOL1         0.1018
      13    H6      19.193803   13.133326   21.777663 H          1 MOL1         0.0783
      14    C5      18.156167   14.374663   20.299159 C.3        1 MOL1         0.1043
      15    H7      18.322787   15.374188   19.876532 H          1 MOL1         0.0783
      16    O4      16.775639   14.254689   20.726512 O.3        1 MOL1        -0.3740
      17    C6      18.392411   13.348736   19.168616 C.3        1 MOL1         0.0138
      18    H8      19.396151   13.501819   18.750337 H          1 MOL1         0.0794
      19    H9      17.670736   13.538265   18.362764 H          1 MOL1         0.0794
      20    O5      18.258328   12.008555   19.650528 O.3        1 MOL1        -0.5486
      21    H10     17.354856   11.942092   20.032535 H          1 MOL1         0.3769
      22    C7      14.867238   20.238465   20.828118 C.3        1 MOL1         0.2972
      23    H11     14.189977   21.059328   20.558591 H          1 MOL1         0.0751
      24    O6      16.133329   20.725701   21.311179 O.3        1 MOL1        -0.3740
      25    C8      14.246802   19.351119   21.936941 C.3        1 MOL1         0.1003
      26    H12     13.299481   18.956624   21.547010 H          1 MOL1         0.0783
      27    O7      13.984043   20.115602   23.124802 O.3        1 MOL1        -0.5519
      28    H13     14.795125   20.649760   23.321474 H          1 MOL1         0.3769
      29    C9      15.165591   18.147158   22.264562 C.3        1 MOL1         0.1053
      30    H14     16.077465   18.534716   22.739479 H          1 MOL1         0.0783
      31    O8      14.479860   17.276562   23.170454 O.3        1 MOL1        -0.5519
      32    H15     14.038353   17.877837   23.812770 H          1 MOL1         0.3769
      33    C10     15.580885   17.383123   20.976743 C.3        1 MOL1         0.1018
      34    H16     14.726171   16.814770   20.586110 H          1 MOL1         0.0783
      35    C11     16.085090   18.345674   19.870605 C.3        1 MOL1         0.1043
      36    H17     17.049664   18.765362   20.178587 H          1 MOL1         0.0783
      37    O9      15.115068   19.402458   19.678522 O.3        1 MOL1        -0.3740
      38    C12     16.278135   17.634701   18.515205 C.3        1 MOL1         0.0138
      39    H18     15.302679   17.301038   18.136845 H          1 MOL1         0.0794
      40    H19     16.902847   16.743778   18.657532 H          1 MOL1         0.0794
      41    O10     16.904128   18.520531   17.585009 O.3        1 MOL1        -0.5486
      42    H20     16.337848   19.321298   17.546956 H          1 MOL1         0.3769
      43    C13     18.362874   24.163637   21.746415 C.3        1 MOL1         0.2972
      44    H21     18.755455   25.182726   21.855223 H          1 MOL1         0.0751
      45    O11     19.417296   23.195262   21.572892 O.3        1 MOL1        -0.3740
      46    C14     17.543931   23.772697   23.001114 C.3        1 MOL1         0.1003
      47    H22     16.691544   24.461144   23.069023 H          1 MOL1         0.0783
      48    O12     18.339040   23.886064   24.191958 O.3        1 MOL1        -0.5519
      49    H23     19.288496   23.845291   23.915765 H          1 MOL1         0.3769
      50    C15     16.990005   22.337404   22.857202 C.3        1 MOL1         0.1053
      51    H24     17.845195   21.652653   22.877392 H          1 MOL1         0.0783
      52    O13     16.116315   22.046925   23.952620 O.3        1 MOL1        -0.5519
      53    H25     16.590710   22.378962   24.747331 H          1 MOL1         0.3769
      54    C16     16.234487   22.146891   21.517703 C.3        1 MOL1         0.1018
      55    H26     15.247264   22.618756   21.611139 H          1 MOL1         0.0783
      56    C17     16.996280   22.741171   20.297582 C.3        1 MOL1         0.1043
      57    H27     17.845160   22.082934   20.069376 H          1 MOL1         0.0783
      58    O14     17.482311   24.072349   20.607297 O.3        1 MOL1        -0.3740
      59    C18     16.132925   22.844864   19.020653 C.3        1 MOL1         0.0138
      60    H28     15.851804   21.835667   18.693219 H          1 MOL1         0.0794
      61    H29     16.739047   23.289122   18.219727 H          1 MOL1         0.0794
      62    O15     14.961579   23.632647   19.252018 O.3        1 MOL1        -0.5486
      63    H30     15.276753   24.510568   19.562339 H          1 MOL1         0.3769
      64    C19     23.487998   22.754532   20.959779 C.3        1 MOL1         0.2972
      65    H31     24.548596   22.877973   20.706061 H          1 MOL1         0.0751
      66    O16     23.163794   21.370645   21.207645 O.3        1 MOL1        -0.3740
      67    C20     23.103300   23.616374   22.193523 C.3        1 MOL1         0.1003
      68    H32     23.272339   24.665390   21.917657 H          1 MOL1         0.0783
      69    O17     23.905652   23.308423   23.342835 O.3        1 MOL1        -0.5519
      70    H33     23.719553   22.365133   23.580844 H          1 MOL1         0.3769
      71    C21     21.600555   23.448203   22.520359 C.3        1 MOL1         0.1053
      72    H34     21.434098   22.409616   22.839197 H          1 MOL1         0.0783
      73    O18     21.234772   24.342980   23.575222 O.3        1 MOL1        -0.5519
      74    H35     21.966400   24.281288   24.229696 H          1 MOL1         0.3769
      75    C22     20.723379   23.719189   21.272332 C.3        1 MOL1         0.1018
      76    H36     20.700831   24.798373   21.070099 H          1 MOL1         0.0783
      77    C23     21.238285   22.983143   20.007118 C.3        1 MOL1         0.1043
      78    H37     21.023944   21.914167   20.111752 H          1 MOL1         0.0783
      79    O19     22.664662   23.203386   19.861725 O.3        1 MOL1        -0.3740
      80    C24     20.555453   23.487083   18.718690 C.3        1 MOL1         0.0138
      81    H38     20.811926   24.543144   18.560947 H          1 MOL1         0.0794
      82    H39     19.466322   23.422299   18.834474 H          1 MOL1         0.0794
      83    O20     20.972132   22.697486   17.603259 O.3        1 MOL1        -0.5486
      84    H40     21.953818   22.716973   17.609302 H          1 MOL1         0.3769
      85    C25     24.827811   17.675915   22.071993 C.3        1 MOL1         0.2972
      86    H41     25.475508   16.838415   22.361539 H          1 MOL1         0.0751
      87    O21     23.619490   17.216756   21.432786 O.3        1 MOL1        -0.3740
      88    C26     24.456456   18.522943   23.317077 C.3        1 MOL1         0.1003
      89    H42     25.394672   18.903737   23.741358 H          1 MOL1         0.0783
      90    O22     23.771872   17.740631   24.309228 O.3        1 MOL1        -0.5519
      91    H43     23.890904   16.790313   24.066787 H          1 MOL1         0.3769
      92    C27     23.581929   19.731264   22.917148 C.3        1 MOL1         0.1053
      93    H44     22.619201   19.336315   22.578059 H          1 MOL1         0.0783
      94    O23     23.380171   20.561613   24.064263 O.3        1 MOL1        -0.5519
      95    H45     23.166346   19.930803   24.788457 H          1 MOL1         0.3769
      96    C28     24.211555   20.545222   21.757506 C.3        1 MOL1         0.1018
      97    H46     25.039972   21.143581   22.159340 H          1 MOL1         0.0783
      98    C29     24.728307   19.636791   20.605998 C.3        1 MOL1         0.1043
      99    H47     23.856789   19.229671   20.076917 H          1 MOL1         0.0783
     100    O24     25.513064   18.541832   21.143227 O.3        1 MOL1        -0.3740
     101    C30     25.585801   20.387771   19.559412 C.3        1 MOL1         0.0138
     102    H48     24.925985   21.042066   18.973693 H          1 MOL1         0.0794
     103    H49     26.014591   19.652237   18.865658 H          1 MOL1         0.0794
     104    O25     26.625191   21.164756   20.167505 O.3        1 MOL1        -0.5486
     105    H50     27.177068   21.540631   19.447334 H          1 MOL1         0.3769
     106    C31     21.438327   13.785059   20.796500 C.3        1 MOL1         0.2972
     107    H51     21.031945   12.801227   20.528094 H          1 MOL1         0.0751
     108    O26     20.392671   14.733747   21.092230 O.3        1 MOL1        -0.3740
     109    C32     22.395137   13.688484   22.011679 C.3        1 MOL1         0.1003
     110    H52     23.245346   13.065787   21.703984 H          1 MOL1         0.0783
     111    O27     21.762549   13.077449   23.145711 O.3        1 MOL1        -0.5519
     112    H53     20.974281   13.631414   23.376808 H          1 MOL1         0.3769
     113    C33     22.940714   15.089959   22.378700 C.3        1 MOL1         0.1053
     114    H54     22.101582   15.696173   22.748497 H          1 MOL1         0.0783
     115    O28     23.926543   14.948694   23.407311 O.3        1 MOL1        -0.5519
     116    H55     23.561487   14.267162   24.016701 H          1 MOL1         0.3769
     117    C34     23.547910   15.807544   21.139952 C.3        1 MOL1         0.1018
     118    H56     24.541250   15.391329   20.924731 H          1 MOL1         0.0783
     119    C35     22.673366   15.678453   19.862294 C.3        1 MOL1         0.1043
     120    H57     21.812711   16.353437   19.950815 H          1 MOL1         0.0783
     121    O29     22.218199   14.312091   19.703849 O.3        1 MOL1        -0.3740
     122    C36     23.463203   16.057953   18.591459 C.3        1 MOL1         0.0138
     123    H58     24.271560   15.330878   18.436615 H          1 MOL1         0.0794
     124    H59     23.925269   17.044043   18.733363 H          1 MOL1         0.0794
     125    O30     22.591977   16.087327   17.459253 O.3        1 MOL1        -0.5486
     126    H60     22.129544   15.220809   17.447763 H          1 MOL1         0.3769
     127    C1      18.613534   18.980645   24.539207 C.3        1 MOL1        -0.2427
     128    H1      18.065951   18.036304   24.434542 H          1 MOL1         0.0958
     129    H2      19.006109   19.029475   25.562801 H          1 MOL1         0.0958
     130    H3      17.899559   19.803631   24.411792 H          1 MOL1         0.0958
     131    C2      19.760673   19.069482   23.512101 C.3        1 MOL1        -0.1412
     132    H4      20.464392   18.241508   23.680156 H          1 MOL1         0.0947
     133    H5      20.322007   20.001143   23.670885 H          1 MOL1         0.0947
     134    C3      19.232584   19.020572   22.062726 C.3        1 MOL1        -0.1437
     135    H6      18.644256   18.109942   21.911961 H          1 MOL1         0.0947
     136    H7      18.555266   19.862547   21.887675 H          1 MOL1         0.0947
     137    C4      20.377254   19.070630   21.034961 C.3        1 MOL1        -0.1437
     138    H8      21.047652   18.215125   21.190328 H          1 MOL1         0.0947
     139    H9      20.966178   19.977980   21.206452 H          1 MOL1         0.0947
     140    C5      19.859040   19.067786   19.583007 C.3        1 MOL1        -0.1437
     141    H10     19.301892   18.139966   19.392748 H          1 MOL1         0.0947
     142    H11     19.156689   19.900048   19.436609 H          1 MOL1         0.0947
     143    C6      21.017295   19.191345   18.571786 C.3        1 MOL1        -0.1437
     144    H12     21.721202   18.364048   18.718240 H          1 MOL1         0.0947
     145    H13     21.577788   20.117440   18.756083 H          1 MOL1         0.0947
     146    C7      20.506887   19.179997   17.117106 C.3        1 MOL1        -0.1477
     147    H14     19.925758   18.265714   16.935386 H          1 MOL1         0.0947
     148    H15     19.830388   20.030653   16.957565 H          1 MOL1         0.0947
     149    C8      21.675132   19.253288   16.120715 C.3        1 MOL1         0.0145
     150    H16     22.331310   18.389245   16.261756 H          1 MOL1         0.0921
     151    H17     22.254249   20.162936   16.300926 H          1 MOL1         0.0921
     152    N1      21.219093   19.267154   14.676908 N.4        1 MOL1        -0.5969
     153    H18     20.685716   18.423899   14.441817 H          1 MOL1         0.3603
     154    H19     22.011596   19.314210   14.027829 H          1 MOL1         0.3603
     155    H20     20.617380   20.073379   14.479320 H          1 MOL1         0.3603
@<TRIPOS>BOND
    1     1     2    1
    2     1     3    1
    3     1     4    1
    4     4     5    1
    5     4     6    1
    6     6     7    1
    7     4     8    1
    8     8     9    1
    9     8    10    1
   10    10    11    1
   11     8    12    1
   12    12    13    1
   13    12    14    1
   14    14    15    1
   15     1    16    1
   16    14    16    1
   17    14    17    1
   18    17    18    1
   19    17    19    1
   20    17    20    1
   21    20    21    1
   22    22    23    1
   23    22    24    1
   24    22    25    1
   25    25    26    1
   26    25    27    1
   27    27    28    1
   28    25    29    1
   29    29    30    1
   30    29    31    1
   31    31    32    1
   32     3    33    1
   33    29    33    1
   34    33    34    1
   35    33    35    1
   36    35    36    1
   37    22    37    1
   38    35    37    1
   39    35    38    1
   40    38    39    1
   41    38    40    1
   42    38    41    1
   43    41    42    1
   44    43    44    1
   45    43    45    1
   46    43    46    1
   47    46    47    1
   48    46    48    1
   49    48    49    1
   50    46    50    1
   51    50    51    1
   52    50    52    1
   53    52    53    1
   54    24    54    1
   55    50    54    1
   56    54    55    1
   57    54    56    1
   58    56    57    1
   59    43    58    1
   60    56    58    1
   61    56    59    1
   62    59    60    1
   63    59    61    1
   64    59    62    1
   65    62    63    1
   66    64    65    1
   67    64    66    1
   68    64    67    1
   69    67    68    1
   70    67    69    1
   71    69    70    1
   72    67    71    1
   73    71    72    1
   74    71    73    1
   75    73    74    1
   76    45    75    1
   77    71    75    1
   78    75    76    1
   79    75    77    1
   80    77    78    1
   81    64    79    1
   82    77    79    1
   83    77    80    1
   84    80    81    1
   85    80    82    1
   86    80    83    1
   87    83    84    1
   88    85    86    1
   89    85    87    1
   90    85    88    1
   91    88    89    1
   92    88    90    1
   93    90    91    1
   94    88    92    1
   95    92    93    1
   96    92    94    1
   97    94    95    1
   98    66    96    1
   99    92    96    1
  100    96    97    1
  101    96    98    1
  102    98    99    1
  103    85   100    1
  104    98   100    1
  105    98   101    1
  106   101   102    1
  107   101   103    1
  108   101   104    1
  109   104   105    1
  110   106   107    1
  111    12   108    1
  112   106   108    1
  113   106   109    1
  114   109   110    1
  115   109   111    1
  116   111   112    1
  117   109   113    1
  118   113   114    1
  119   113   115    1
  120   115   116    1
  121    87   117    1
  122   113   117    1
  123   117   118    1
  124   117   119    1
  125   119   120    1
  126   106   121    1
  127   119   121    1
  128   119   122    1
  129   122   123    1
  130   122   124    1
  131   122   125    1
  132   125   126    1
  133   127   128    1
  134   127   129    1
  135   127   130    1
  136   127   131    1
  137   131   132    1
  138   131   133    1
  139   131   134    1
  140   134   135    1
  141   134   136    1
  142   134   137    1
  143   137   138    1
  144   137   139    1
  145   137   140    1
  146   140   141    1
  147   140   142    1
  148   140   143    1
  149   143   144    1
  150   143   145    1
  151   143   146    1
  152   146   147    1
  153   146   148    1
  154   146   149    1
  155   149   150    1
  156   149   151    1
  157   149   152    1
  158   152   153    1
  159   152   154    1
  160   152   155    1
@<TRIPOS>SUBSTRUCTURE
       1 MOL1            1 RESIDUE      1      MOL     
       2 MOL1          155 RESIDUE      1      MOL     
@<SCITEGIC>MOL_PROPERTY
VM2 Rank
SciTegic.value.IntegerValue
3

@<SCITEGIC>MOL_PROPERTY
Conf_Id
SciTegic.value.IntegerValue
25599

@<SCITEGIC>MOL_PROPERTY
Probability
SciTegic.value.DoubleValue
1.99

@<SCITEGIC>MOL_PROPERTY
Sum Probability
SciTegic.value.DoubleValue
9.69

@<SCITEGIC>MOL_PROPERTY
Delta G
SciTegic.value.DoubleValue
0.559

@<SCITEGIC>MOL_PROPERTY
G
SciTegic.value.DoubleValue
574.632

@<SCITEGIC>MOL_PROPERTY
E
SciTegic.value.DoubleValue
367.668

@<SCITEGIC>MOL_PROPERTY
-TS
SciTegic.value.DoubleValue
206.964

@<SCITEGIC>MOL_PROPERTY
U+W
SciTegic.value.DoubleValue
230.848

@<SCITEGIC>MOL_PROPERTY
U
SciTegic.value.DoubleValue
303.865

@<SCITEGIC>MOL_PROPERTY
W
SciTegic.value.DoubleValue
-73.016

@<SCITEGIC>MOL_PROPERTY
W(PB)
SciTegic.value.DoubleValue
-79.192

@<SCITEGIC>MOL_PROPERTY
W(SA)
SciTegic.value.DoubleValue
6.176

@<SCITEGIC>MOL_PROPERTY
Valence
SciTegic.value.DoubleValue
146.866

@<SCITEGIC>MOL_PROPERTY
Coulomb
SciTegic.value.DoubleValue
185.774

@<SCITEGIC>MOL_PROPERTY
VdW
SciTegic.value.DoubleValue
-28.776

@<SCITEGIC>MOL_PROPERTY
VdW6
SciTegic.value.DoubleValue
-180.743

@<SCITEGIC>MOL_PROPERTY
VdW12
SciTegic.value.DoubleValue
151.967

@<SCITEGIC>MOL_PROPERTY
Bond
SciTegic.value.DoubleValue
4.304

@<SCITEGIC>MOL_PROPERTY
Angle
SciTegic.value.DoubleValue
9.384

@<SCITEGIC>MOL_PROPERTY
Pdih
SciTegic.value.DoubleValue
133.177

@<SCITEGIC>MOL_PROPERTY
Idih
SciTegic.value.DoubleValue
0.000

@<SCITEGIC>MOL_PROPERTY
Tether
SciTegic.value.DoubleValue
0.000

@<TRIPOS>MOLECULE
CD_guest-3_vm2_rndm.mol2 : vm2 host+ligand conformer 4
         155         160           2
SMALL
USER_CHARGES
 
@<TRIPOS>ATOM
       1    C1      16.369452   15.205124   21.758506 C.3        1 MOL1         0.2972
       2    H1      15.298395   15.097178   21.972588 H          1 MOL1         0.0751
       3    O1      16.688225   16.530842   21.288154 O.3        1 MOL1        -0.3740
       4    C2      17.205750   14.906385   23.028513 C.3        1 MOL1         0.1003
       5    H2      17.003996   13.864700   23.310261 H          1 MOL1         0.0783
       6    O2      16.838487   15.765409   24.119044 O.3        1 MOL1        -0.5519
       7    H3      16.002124   16.223093   23.860150 H          1 MOL1         0.3769
       8    C3      18.717372   15.039817   22.732419 C.3        1 MOL1         0.1053
       9    H4      18.931851   16.094715   22.527677 H          1 MOL1         0.0783
      10    O3      19.454853   14.620634   23.883491 O.3        1 MOL1        -0.5519
      11    H5      19.000706   15.059358   24.638118 H          1 MOL1         0.3769
      12    C4      19.135678   14.214364   21.488639 C.3        1 MOL1         0.1018
      13    H6      19.209812   13.156920   21.775668 H          1 MOL1         0.0783
      14    C5      18.150423   14.377791   20.295683 C.3        1 MOL1         0.1043
      15    H7      18.307937   15.372391   19.858124 H          1 MOL1         0.0783
      16    O4      16.777359   14.260435   20.746645 O.3        1 MOL1        -0.3740
      17    C6      18.370778   13.338189   19.174438 C.3        1 MOL1         0.0138
      18    H8      19.367162   13.488420   18.737937 H          1 MOL1         0.0794
      19    H9      17.635564   13.515835   18.378174 H          1 MOL1         0.0794
      20    O5      18.248110   12.003823   19.675172 O.3        1 MOL1        -0.5486
      21    H10     17.351093   11.939861   20.072508 H          1 MOL1         0.3769
      22    C7      14.843759   20.246663   20.871658 C.3        1 MOL1         0.2972
      23    H11     14.159689   21.066424   20.616793 H          1 MOL1         0.0751
      24    O6      16.108893   20.734499   21.356016 O.3        1 MOL1        -0.3740
      25    C8      14.236797   19.346713   21.977055 C.3        1 MOL1         0.1003
      26    H12     13.286852   18.952680   21.593100 H          1 MOL1         0.0783
      27    O7      13.984927   20.101083   23.173940 O.3        1 MOL1        -0.5519
      28    H13     14.785638   20.658025   23.348353 H          1 MOL1         0.3769
      29    C9      15.162994   18.143380   22.286011 C.3        1 MOL1         0.1053
      30    H14     16.076120   18.530130   22.759173 H          1 MOL1         0.0783
      31    O8      14.485450   17.262685   23.188453 O.3        1 MOL1        -0.5519
      32    H15     14.045294   17.857407   23.837854 H          1 MOL1         0.3769
      33    C10     15.574021   17.393982   20.987594 C.3        1 MOL1         0.1018
      34    H16     14.719985   16.824304   20.597472 H          1 MOL1         0.0783
      35    C11     16.064795   18.370712   19.887785 C.3        1 MOL1         0.1043
      36    H17     17.028234   18.794025   20.194268 H          1 MOL1         0.0783
      37    O9      15.087316   19.423085   19.712176 O.3        1 MOL1        -0.3740
      38    C12     16.254851   17.674080   18.524508 C.3        1 MOL1         0.0138
      39    H18     15.280652   17.329963   18.152333 H          1 MOL1         0.0794
      40    H19     16.893316   16.790826   18.653727 H          1 MOL1         0.0794
      41    O10     16.859712   18.576305   17.596080 O.3        1 MOL1        -0.5486
      42    H20     16.275912   19.364301   17.562235 H          1 MOL1         0.3769
      43    C13     18.354506   24.176112   21.705116 C.3        1 MOL1         0.2972
      44    H21     18.744918   25.198589   21.785534 H          1 MOL1         0.0751
      45    O11     19.412183   23.203052   21.583639 O.3        1 MOL1        -0.3740
      46    C14     17.516991   23.827931   22.960099 C.3        1 MOL1         0.1003
      47    H22     16.664537   24.518903   22.993071 H          1 MOL1         0.0783
      48    O12     18.296813   23.979864   24.156931 O.3        1 MOL1        -0.5519
      49    H23     19.248764   23.895389   23.899484 H          1 MOL1         0.3769
      50    C15     16.963619   22.389109   22.855353 C.3        1 MOL1         0.1053
      51    H24     17.817519   21.704264   22.903953 H          1 MOL1         0.0783
      52    O13     16.078413   22.130812   23.949982 O.3        1 MOL1        -0.5519
      53    H25     16.543525   22.487409   24.739439 H          1 MOL1         0.3769
      54    C16     16.222066   22.160977   21.514660 C.3        1 MOL1         0.1018
      55    H26     15.239631   22.646829   21.582586 H          1 MOL1         0.0783
      56    C17     17.003134   22.708508   20.285263 C.3        1 MOL1         0.1043
      57    H27     17.856169   22.042438   20.100740 H          1 MOL1         0.0783
      58    O14     17.494127   24.046431   20.555164 O.3        1 MOL1        -0.3740
      59    C18     16.168052   22.750604   18.983168 C.3        1 MOL1         0.0138
      60    H28     16.021205   21.721681   18.629516 H          1 MOL1         0.0794
      61    H29     16.746515   23.278754   18.213325 H          1 MOL1         0.0794
      62    O15     14.897342   23.385025   19.175217 O.3        1 MOL1        -0.5486
      63    H30     14.453771   23.434623   18.300552 H          1 MOL1         0.3769
      64    C19     23.486121   22.748122   20.979145 C.3        1 MOL1         0.2972
      65    H31     24.547444   22.873148   20.728404 H          1 MOL1         0.0751
      66    O16     23.162711   21.362980   21.221551 O.3        1 MOL1        -0.3740
      67    C20     23.098129   23.605503   22.215022 C.3        1 MOL1         0.1003
      68    H32     23.270175   24.655345   21.944186 H          1 MOL1         0.0783
      69    O17     23.895933   23.291068   23.365800 O.3        1 MOL1        -0.5519
      70    H33     23.704676   22.348248   23.601523 H          1 MOL1         0.3769
      71    C21     21.593833   23.438954   22.535624 C.3        1 MOL1         0.1053
      72    H34     21.423739   22.399474   22.849518 H          1 MOL1         0.0783
      73    O18     21.225338   24.330472   23.592397 O.3        1 MOL1        -0.5519
      74    H35     21.952149   24.262434   24.251464 H          1 MOL1         0.3769
      75    C22     20.722623   23.717207   21.285263 C.3        1 MOL1         0.1018
      76    H36     20.709381   24.796926   21.085221 H          1 MOL1         0.0783
      77    C23     21.238335   22.978639   20.021834 C.3        1 MOL1         0.1043
      78    H37     21.023243   21.909854   20.127911 H          1 MOL1         0.0783
      79    O19     22.665180   23.198620   19.879983 O.3        1 MOL1        -0.3740
      80    C24     20.559711   23.480380   18.730286 C.3        1 MOL1         0.0138
      81    H38     20.814065   24.537034   18.573143 H          1 MOL1         0.0794
      82    H39     19.470339   23.412523   18.840910 H          1 MOL1         0.0794
      83    O20     20.983298   22.691232   17.617096 O.3        1 MOL1        -0.5486
      84    H40     21.964942   22.711983   17.628411 H          1 MOL1         0.3769
      85    C25     24.831186   17.668466   22.075185 C.3        1 MOL1         0.2972
      86    H41     25.477801   16.829491   22.362969 H          1 MOL1         0.0751
      87    O21     23.627981   17.213638   21.423735 O.3        1 MOL1        -0.3740
      88    C26     24.449206   18.506214   23.323477 C.3        1 MOL1         0.1003
      89    H42     25.383517   18.885392   23.757619 H          1 MOL1         0.0783
      90    O22     23.758832   17.716286   24.305293 O.3        1 MOL1        -0.5519
      91    H43     23.880631   16.767790   24.057228 H          1 MOL1         0.3769
      92    C27     23.575572   19.716093   22.925513 C.3        1 MOL1         0.1053
      93    H44     22.614495   19.321660   22.580943 H          1 MOL1         0.0783
      94    O23     23.369448   20.541175   24.075473 O.3        1 MOL1        -0.5519
      95    H45     23.151763   19.907375   24.795881 H          1 MOL1         0.3769
      96    C28     24.208742   20.536686   21.772186 C.3        1 MOL1         0.1018
      97    H46     25.033886   21.135874   22.179480 H          1 MOL1         0.0783
      98    C29     24.732132   19.634247   20.619026 C.3        1 MOL1         0.1043
      99    H47     23.866174   19.230360   20.077979 H          1 MOL1         0.0783
     100    O24     25.521704   18.543892   21.158131 O.3        1 MOL1        -0.3740
     101    C30     25.606839   20.389907   19.594114 C.3        1 MOL1         0.0138
     102    H48     24.990930   21.142365   19.083988 H          1 MOL1         0.0794
     103    H49     25.951047   19.678980   18.831053 H          1 MOL1         0.0794
     104    O25     26.724751   21.016569   20.229385 O.3        1 MOL1        -0.5486
     105    H50     27.221730   20.300122   20.683431 H          1 MOL1         0.3769
     106    C31     21.442867   13.792890   20.755219 C.3        1 MOL1         0.2972
     107    H51     21.033086   12.812666   20.478943 H          1 MOL1         0.0751
     108    O26     20.399622   14.745428   21.048036 O.3        1 MOL1        -0.3740
     109    C32     22.394593   13.684697   21.973792 C.3        1 MOL1         0.1003
     110    H52     23.244119   13.061868   21.664472 H          1 MOL1         0.0783
     111    O27     21.757141   13.067005   23.101348 O.3        1 MOL1        -0.5519
     112    H53     20.982272   13.633628   23.346399 H          1 MOL1         0.3769
     113    C33     22.942916   15.081837   22.352849 C.3        1 MOL1         0.1053
     114    H54     22.103966   15.687836   22.723459 H          1 MOL1         0.0783
     115    O28     23.924272   14.930805   23.384371 O.3        1 MOL1        -0.5519
     116    H55     23.555401   14.245767   23.987473 H          1 MOL1         0.3769
     117    C34     23.557178   15.806457   21.121705 C.3        1 MOL1         0.1018
     118    H56     24.551239   15.390861   20.908669 H          1 MOL1         0.0783
     119    C35     22.688595   15.687114   19.839141 C.3        1 MOL1         0.1043
     120    H57     21.829051   16.363219   19.928992 H          1 MOL1         0.0783
     121    O29     22.231057   14.322733   19.669908 O.3        1 MOL1        -0.3740
     122    C36     23.483714   16.074527   18.574082 C.3        1 MOL1         0.0138
     123    H58     24.293332   15.349010   18.418530 H          1 MOL1         0.0794
     124    H59     23.944055   17.060276   18.723662 H          1 MOL1         0.0794
     125    O30     22.617189   16.109730   17.438457 O.3        1 MOL1        -0.5486
     126    H60     22.153912   15.243684   17.421422 H          1 MOL1         0.3769
     127    C1      18.619344   19.056554   24.570738 C.3        1 MOL1        -0.2427
     128    H1      18.041431   18.129355   24.476014 H          1 MOL1         0.0958
     129    H2      19.022338   19.098144   25.590596 H          1 MOL1         0.0958
     130    H3      17.930300   19.900810   24.445428 H          1 MOL1         0.0958
     131    C2      19.759800   19.104073   23.533337 C.3        1 MOL1        -0.1412
     132    H4      20.439223   18.255927   23.700775 H          1 MOL1         0.0947
     133    H5      20.350594   20.019012   23.681745 H          1 MOL1         0.0947
     134    C3      19.218634   19.062701   22.088513 C.3        1 MOL1        -0.1437
     135    H6      18.598530   18.171182   21.949902 H          1 MOL1         0.0947
     136    H7      18.568443   19.926029   21.913322 H          1 MOL1         0.0947
     137    C4      20.356433   19.068989   21.051150 C.3        1 MOL1        -0.1437
     138    H8      21.003048   18.195175   21.207471 H          1 MOL1         0.0947
     139    H9      20.973067   19.959861   21.210758 H          1 MOL1         0.0947
     140    C5      19.827204   19.072181   19.603088 C.3        1 MOL1        -0.1437
     141    H10     19.257544   18.151145   19.417292 H          1 MOL1         0.0947
     142    H11     19.133968   19.912843   19.462034 H          1 MOL1         0.0947
     143    C6      20.978280   19.183507   18.582170 C.3        1 MOL1        -0.1437
     144    H12     21.672599   18.346528   18.718723 H          1 MOL1         0.0947
     145    H13     21.552574   20.101473   18.764988 H          1 MOL1         0.0947
     146    C7      20.454862   19.185611   17.132046 C.3        1 MOL1        -0.1477
     147    H14     19.863338   18.278113   16.949999 H          1 MOL1         0.0947
     148    H15     19.785120   20.043604   16.983628 H          1 MOL1         0.0947
     149    C8      21.614797   19.254714   16.125658 C.3        1 MOL1         0.0145
     150    H16     22.264704   18.384179   16.255253 H          1 MOL1         0.0921
     151    H17     22.203530   20.158068   16.306479 H          1 MOL1         0.0921
     152    N1      21.145984   19.282190   14.686133 N.4        1 MOL1        -0.5969
     153    H18     20.602359   18.445712   14.450371 H          1 MOL1         0.3603
     154    H19     21.933120   19.325920   14.030324 H          1 MOL1         0.3603
     155    H20     20.550433   20.095505   14.499216 H          1 MOL1         0.3603
@<TRIPOS>BOND
    1     1     2    1
    2     1     3    1
    3     1     4    1
    4     4     5    1
    5     4     6    1
    6     6     7    1
    7     4     8    1
    8     8     9    1
    9     8    10    1
   10    10    11    1
   11     8    12    1
   12    12    13    1
   13    12    14    1
   14    14    15    1
   15     1    16    1
   16    14    16    1
   17    14    17    1
   18    17    18    1
   19    17    19    1
   20    17    20    1
   21    20    21    1
   22    22    23    1
   23    22    24    1
   24    22    25    1
   25    25    26    1
   26    25    27    1
   27    27    28    1
   28    25    29    1
   29    29    30    1
   30    29    31    1
   31    31    32    1
   32     3    33    1
   33    29    33    1
   34    33    34    1
   35    33    35    1
   36    35    36    1
   37    22    37    1
   38    35    37    1
   39    35    38    1
   40    38    39    1
   41    38    40    1
   42    38    41    1
   43    41    42    1
   44    43    44    1
   45    43    45    1
   46    43    46    1
   47    46    47    1
   48    46    48    1
   49    48    49    1
   50    46    50    1
   51    50    51    1
   52    50    52    1
   53    52    53    1
   54    24    54    1
   55    50    54    1
   56    54    55    1
   57    54    56    1
   58    56    57    1
   59    43    58    1
   60    56    58    1
   61    56    59    1
   62    59    60    1
   63    59    61    1
   64    59    62    1
   65    62    63    1
   66    64    65    1
   67    64    66    1
   68    64    67    1
   69    67    68    1
   70    67    69    1
   71    69    70    1
   72    67    71    1
   73    71    72    1
   74    71    73    1
   75    73    74    1
   76    45    75    1
   77    71    75    1
   78    75    76    1
   79    75    77    1
   80    77    78    1
   81    64    79    1
   82    77    79    1
   83    77    80    1
   84    80    81    1
   85    80    82    1
   86    80    83    1
   87    83    84    1
   88    85    86    1
   89    85    87    1
   90    85    88    1
   91    88    89    1
   92    88    90    1
   93    90    91    1
   94    88    92    1
   95    92    93    1
   96    92    94    1
   97    94    95    1
   98    66    96    1
   99    92    96    1
  100    96    97    1
  101    96    98    1
  102    98    99    1
  103    85   100    1
  104    98   100    1
  105    98   101    1
  106   101   102    1
  107   101   103    1
  108   101   104    1
  109   104   105    1
  110   106   107    1
  111    12   108    1
  112   106   108    1
  113   106   109    1
  114   109   110    1
  115   109   111    1
  116   111   112    1
  117   109   113    1
  118   113   114    1
  119   113   115    1
  120   115   116    1
  121    87   117    1
  122   113   117    1
  123   117   118    1
  124   117   119    1
  125   119   120    1
  126   106   121    1
  127   119   121    1
  128   119   122    1
  129   122   123    1
  130   122   124    1
  131   122   125    1
  132   125   126    1
  133   127   128    1
  134   127   129    1
  135   127   130    1
  136   127   131    1
  137   131   132    1
  138   131   133    1
  139   131   134    1
  140   134   135    1
  141   134   136    1
  142   134   137    1
  143   137   138    1
  144   137   139    1
  145   137   140    1
  146   140   141    1
  147   140   142    1
  148   140   143    1
  149   143   144    1
  150   143   145    1
  151   143   146    1
  152   146   147    1
  153   146   148    1
  154   146   149    1
  155   149   150    1
  156   149   151    1
  157   149   152    1
  158   152   153    1
  159   152   154    1
  160   152   155    1
@<TRIPOS>SUBSTRUCTURE
       1 MOL1            1 RESIDUE      1      MOL     
       2 MOL1          155 RESIDUE      1      MOL     
@<SCITEGIC>MOL_PROPERTY
VM2 Rank
SciTegic.value.IntegerValue
4

@<SCITEGIC>MOL_PROPERTY
Conf_Id
SciTegic.value.IntegerValue
25600

@<SCITEGIC>MOL_PROPERTY
Probability
SciTegic.value.DoubleValue
1.52

@<SCITEGIC>MOL_PROPERTY
Sum Probability
SciTegic.value.DoubleValue
11.21

@<SCITEGIC>MOL_PROPERTY
Delta G
SciTegic.value.DoubleValue
0.720

@<SCITEGIC>MOL_PROPERTY
G
SciTegic.value.DoubleValue
574.793

@<SCITEGIC>MOL_PROPERTY
E
SciTegic.value.DoubleValue
367.694

@<SCITEGIC>MOL_PROPERTY
-TS
SciTegic.value.DoubleValue
207.099

@<SCITEGIC>MOL_PROPERTY
U+W
SciTegic.value.DoubleValue
230.875

@<SCITEGIC>MOL_PROPERTY
U
SciTegic.value.DoubleValue
303.671

@<SCITEGIC>MOL_PROPERTY
W
SciTegic.value.DoubleValue
-72.796

@<SCITEGIC>MOL_PROPERTY
W(PB)
SciTegic.value.DoubleValue
-78.962

@<SCITEGIC>MOL_PROPERTY
W(SA)
SciTegic.value.DoubleValue
6.166

@<SCITEGIC>MOL_PROPERTY
Valence
SciTegic.value.DoubleValue
146.688

@<SCITEGIC>MOL_PROPERTY
Coulomb
SciTegic.value.DoubleValue
185.782

@<SCITEGIC>MOL_PROPERTY
VdW
SciTegic.value.DoubleValue
-28.800

@<SCITEGIC>MOL_PROPERTY
VdW6
SciTegic.value.DoubleValue
-180.878

@<SCITEGIC>MOL_PROPERTY
VdW12
SciTegic.value.DoubleValue
152.078

@<SCITEGIC>MOL_PROPERTY
Bond
SciTegic.value.DoubleValue
4.296

@<SCITEGIC>MOL_PROPERTY
Angle
SciTegic.value.DoubleValue
9.391

@<SCITEGIC>MOL_PROPERTY
Pdih
SciTegic.value.DoubleValue
133.002

@<SCITEGIC>MOL_PROPERTY
Idih
SciTegic.value.DoubleValue
0.000

@<SCITEGIC>MOL_PROPERTY
Tether
SciTegic.value.DoubleValue
0.000

@<TRIPOS>MOLECULE
CD_guest-3_vm2_rndm.mol2 : vm2 host+ligand conformer 5
         155         160           2
SMALL
USER_CHARGES
 
@<TRIPOS>ATOM
       1    C1      16.419636   15.285339   21.787422 C.3        1 MOL1         0.2972
       2    H1      15.364118   15.148519   22.054913 H          1 MOL1         0.0751
       3    O1      16.663347   16.596135   21.238047 O.3        1 MOL1        -0.3740
       4    C2      17.322901   15.083416   23.031542 C.3        1 MOL1         0.1003
       5    H2      17.161876   14.055894   23.382904 H          1 MOL1         0.0783
       6    O2      16.987220   15.996291   24.087845 O.3        1 MOL1        -0.5519
       7    H3      16.084734   16.346526   23.893347 H          1 MOL1         0.3769
       8    C3      18.814929   15.234895   22.656424 C.3        1 MOL1         0.1053
       9    H4      18.989192   16.277003   22.364068 H          1 MOL1         0.0783
      10    O3      19.612188   14.917620   23.800387 O.3        1 MOL1        -0.5519
      11    H5      19.177227   15.398770   24.540423 H          1 MOL1         0.3769
      12    C4      19.192571   14.330417   21.456231 C.3        1 MOL1         0.1018
      13    H6      19.258900   13.290756   21.803505 H          1 MOL1         0.0783
      14    C5      18.166300   14.436858   20.292904 C.3        1 MOL1         0.1043
      15    H7      18.287278   15.419125   19.816966 H          1 MOL1         0.0783
      16    O4      16.814822   14.307086   20.801846 O.3        1 MOL1        -0.3740
      17    C6      18.365474   13.361921   19.201266 C.3        1 MOL1         0.0138
      18    H8      19.341265   13.515947   18.721646 H          1 MOL1         0.0794
      19    H9      17.597076   13.496462   18.428232 H          1 MOL1         0.0794
      20    O5      18.290121   12.044094   19.752793 O.3        1 MOL1        -0.5486
      21    H10     17.410122   11.976477   20.185880 H          1 MOL1         0.3769
      22    C7      14.723265   20.260191   20.918695 C.3        1 MOL1         0.2972
      23    H11     14.027065   21.080445   20.701046 H          1 MOL1         0.0751
      24    O6      16.009203   20.743843   21.352074 O.3        1 MOL1        -0.3740
      25    C8      14.166536   19.345992   22.037545 C.3        1 MOL1         0.1003
      26    H12     13.212218   18.937029   21.680916 H          1 MOL1         0.0783
      27    O7      13.937465   20.089422   23.245486 O.3        1 MOL1        -0.5519
      28    H13     14.728375   20.667499   23.394253 H          1 MOL1         0.3769
      29    C9      15.123289   18.157654   22.308860 C.3        1 MOL1         0.1053
      30    H14     16.044141   18.558156   22.754868 H          1 MOL1         0.0783
      31    O8      14.488021   17.264142   23.229571 O.3        1 MOL1        -0.5519
      32    H15     14.052256   17.851043   23.889171 H          1 MOL1         0.3769
      33    C10     15.505402   17.419807   20.993178 C.3        1 MOL1         0.1018
      34    H16     14.655673   16.819010   20.642410 H          1 MOL1         0.0783
      35    C11     15.915456   18.405793   19.868272 C.3        1 MOL1         0.1043
      36    H17     16.886638   18.846092   20.122135 H          1 MOL1         0.0783
      37    O9      14.915273   19.443968   19.745284 O.3        1 MOL1        -0.3740
      38    C12     16.043308   17.710420   18.497284 C.3        1 MOL1         0.0138
      39    H18     15.058695   17.337965   18.184535 H          1 MOL1         0.0794
      40    H19     16.713530   16.845780   18.590060 H          1 MOL1         0.0794
      41    O10     16.564945   18.627287   17.533588 O.3        1 MOL1        -0.5486
      42    H20     15.960893   19.400946   17.539303 H          1 MOL1         0.3769
      43    C13     18.329554   24.126417   21.682856 C.3        1 MOL1         0.2972
      44    H21     18.746398   25.138892   21.757181 H          1 MOL1         0.0751
      45    O11     19.362935   23.125339   21.568938 O.3        1 MOL1        -0.3740
      46    C14     17.475546   23.814044   22.936463 C.3        1 MOL1         0.1003
      47    H22     16.645240   24.531832   22.958924 H          1 MOL1         0.0783
      48    O12     18.250409   23.951255   24.137877 O.3        1 MOL1        -0.5519
      49    H23     19.202982   23.854995   23.885996 H          1 MOL1         0.3769
      50    C15     16.876362   22.393647   22.841727 C.3        1 MOL1         0.1053
      51    H24     17.705869   21.682250   22.905562 H          1 MOL1         0.0783
      52    O13     15.975222   22.176349   23.931669 O.3        1 MOL1        -0.5519
      53    H25     16.445304   22.527424   24.720820 H          1 MOL1         0.3769
      54    C16     16.142115   22.169115   21.496856 C.3        1 MOL1         0.1018
      55    H26     15.167271   22.671949   21.548234 H          1 MOL1         0.0783
      56    C17     16.945196   22.686124   20.268861 C.3        1 MOL1         0.1043
      57    H27     17.776379   21.992644   20.085729 H          1 MOL1         0.0783
      58    O14     17.468410   24.013086   20.531031 O.3        1 MOL1        -0.3740
      59    C18     16.107466   22.761129   18.973246 C.3        1 MOL1         0.0138
      60    H28     15.788982   21.749338   18.691625 H          1 MOL1         0.0794
      61    H29     16.744118   23.139506   18.162252 H          1 MOL1         0.0794
      62    O15     14.967006   23.607247   19.145140 O.3        1 MOL1        -0.5486
      63    H30     15.314081   24.483911   19.423334 H          1 MOL1         0.3769
      64    C19     23.463766   22.677718   21.000555 C.3        1 MOL1         0.2972
      65    H31     24.522885   22.826988   20.753888 H          1 MOL1         0.0751
      66    O16     23.173164   21.286969   21.247148 O.3        1 MOL1        -0.3740
      67    C20     23.051556   23.530129   22.232454 C.3        1 MOL1         0.1003
      68    H32     23.212541   24.581779   21.961821 H          1 MOL1         0.0783
      69    O17     23.842839   23.228540   23.391242 O.3        1 MOL1        -0.5519
      70    H33     23.667898   22.281518   23.622997 H          1 MOL1         0.3769
      71    C21     21.546475   23.346542   22.541123 C.3        1 MOL1         0.1053
      72    H34     21.383676   22.306509   22.856974 H          1 MOL1         0.0783
      73    O18     21.162442   24.240226   23.590419 O.3        1 MOL1        -0.5519
      74    H35     21.885326   24.181854   24.254794 H          1 MOL1         0.3769
      75    C22     20.686836   23.613093   21.280599 C.3        1 MOL1         0.1018
      76    H36     20.691117   24.689533   21.063173 H          1 MOL1         0.0783
      77    C23     21.214913   22.853910   20.034881 C.3        1 MOL1         0.1043
      78    H37     21.019189   21.782008   20.159447 H          1 MOL1         0.0783
      79    O19     22.637624   23.100950   19.894731 O.3        1 MOL1        -0.3740
      80    C24     20.535216   23.325688   18.732807 C.3        1 MOL1         0.0138
      81    H38     20.751029   24.390962   18.576265 H          1 MOL1         0.0794
      82    H39     19.447850   23.215993   18.827945 H          1 MOL1         0.0794
      83    O20     21.006974   22.552532   17.628577 O.3        1 MOL1        -0.5486
      84    H40     21.987368   22.591121   17.672014 H          1 MOL1         0.3769
      85    C25     24.910943   17.633512   22.091427 C.3        1 MOL1         0.2972
      86    H41     25.560019   16.794885   22.374790 H          1 MOL1         0.0751
      87    O21     23.714107   17.182713   21.426284 O.3        1 MOL1        -0.3740
      88    C26     24.514998   18.459089   23.342744 C.3        1 MOL1         0.1003
      89    H42     25.441370   18.858555   23.775728 H          1 MOL1         0.0783
      90    O22     23.842912   17.656163   24.326436 O.3        1 MOL1        -0.5519
      91    H43     23.923391   16.713324   24.042298 H          1 MOL1         0.3769
      92    C27     23.616218   19.648949   22.943273 C.3        1 MOL1         0.1053
      93    H44     22.668220   19.233827   22.583723 H          1 MOL1         0.0783
      94    O23     23.381954   20.463402   24.095714 O.3        1 MOL1        -0.5519
      95    H45     23.181910   19.820316   24.813102 H          1 MOL1         0.3769
      96    C28     24.239888   20.490274   21.801060 C.3        1 MOL1         0.1018
      97    H46     25.042067   21.111514   22.220960 H          1 MOL1         0.0783
      98    C29     24.802660   19.609659   20.648545 C.3        1 MOL1         0.1043
      99    H47     23.954550   19.197644   20.085445 H          1 MOL1         0.0783
     100    O24     25.600734   18.525340   21.189503 O.3        1 MOL1        -0.3740
     101    C30     25.683700   20.391911   19.649339 C.3        1 MOL1         0.0138
     102    H48     25.064446   21.138320   19.134469 H          1 MOL1         0.0794
     103    H49     26.055928   19.695416   18.886111 H          1 MOL1         0.0794
     104    O25     26.777237   21.031814   20.313246 O.3        1 MOL1        -0.5486
     105    H50     27.278937   20.319497   20.768614 H          1 MOL1         0.3769
     106    C31     21.476116   13.823274   20.698410 C.3        1 MOL1         0.2972
     107    H51     21.044108   12.855264   20.413183 H          1 MOL1         0.0751
     108    O26     20.451486   14.810695   20.946112 O.3        1 MOL1        -0.3740
     109    C32     22.390421   13.688139   21.943803 C.3        1 MOL1         0.1003
     110    H52     23.228178   13.039201   21.656830 H          1 MOL1         0.0783
     111    O27     21.708041   13.091677   23.056106 O.3        1 MOL1        -0.5519
     112    H53     20.983227   13.714579   23.316557 H          1 MOL1         0.3769
     113    C33     22.971810   15.067376   22.336964 C.3        1 MOL1         0.1053
     114    H54     22.142978   15.697277   22.689980 H          1 MOL1         0.0783
     115    O28     23.926153   14.886325   23.388506 O.3        1 MOL1        -0.5519
     116    H55     23.523704   14.214755   23.985157 H          1 MOL1         0.3769
     117    C34     23.635575   15.777277   21.123944 C.3        1 MOL1         0.1018
     118    H56     24.629670   15.346837   20.943088 H          1 MOL1         0.0783
     119    C35     22.806228   15.672576   19.815278 C.3        1 MOL1         0.1043
     120    H57     21.963441   16.371297   19.874071 H          1 MOL1         0.0783
     121    O29     22.316955   14.320217   19.637250 O.3        1 MOL1        -0.3740
     122    C36     23.646753   16.038594   18.574686 C.3        1 MOL1         0.0138
     123    H58     24.477706   15.327271   18.476487 H          1 MOL1         0.0794
     124    H59     24.077367   17.039622   18.711520 H          1 MOL1         0.0794
     125    O30     22.825412   16.012384   17.406627 O.3        1 MOL1        -0.5486
     126    H60     22.392473   15.128832   17.409424 H          1 MOL1         0.3769
     127    C1      18.824384   19.202284   24.539769 C.3        1 MOL1        -0.2427
     128    H1      18.049188   18.431883   24.447824 H          1 MOL1         0.0958
     129    H2      19.285726   19.097776   25.529982 H          1 MOL1         0.0958
     130    H3      18.336568   20.183406   24.499610 H          1 MOL1         0.0958
     131    C2      19.885829   19.057613   23.429918 C.3        1 MOL1        -0.1412
     132    H4      20.402699   18.094135   23.545417 H          1 MOL1         0.0947
     133    H5      20.642614   19.843752   23.552738 H          1 MOL1         0.0947
     134    C3      19.264056   19.152415   22.020084 C.3        1 MOL1        -0.1437
     135    H6      18.449742   18.424538   21.926725 H          1 MOL1         0.0947
     136    H7      18.816902   20.143345   21.882519 H          1 MOL1         0.0947
     137    C4      20.306717   18.912058   20.908676 C.3        1 MOL1        -0.1437
     138    H8      20.755879   17.917425   21.029095 H          1 MOL1         0.0947
     139    H9      21.116353   19.643132   21.012975 H          1 MOL1         0.0947
     140    C5      19.681851   19.041939   19.503424 C.3        1 MOL1        -0.1437
     141    H10     18.960462   18.229439   19.344653 H          1 MOL1         0.0947
     142    H11     19.122399   19.985180   19.438366 H          1 MOL1         0.0947
     143    C6      20.744174   19.008286   18.384775 C.3        1 MOL1        -0.1437
     144    H12     21.253896   18.037664   18.391408 H          1 MOL1         0.0947
     145    H13     21.507707   19.774505   18.578737 H          1 MOL1         0.0947
     146    C7      20.107437   19.263398   16.999781 C.3        1 MOL1        -0.1477
     147    H14     19.352467   18.496911   16.778700 H          1 MOL1         0.0947
     148    H15     19.577472   20.225094   17.020258 H          1 MOL1         0.0947
     149    C8      21.153438   19.311875   15.871768 C.3        1 MOL1         0.0145
     150    H16     21.965486   19.987530   16.153449 H          1 MOL1         0.0921
     151    H17     20.687190   19.699586   14.962172 H          1 MOL1         0.0921
     152    N1      21.749974   17.959631   15.535951 N.4        1 MOL1        -0.5969
     153    H18     22.193832   17.508118   16.352910 H          1 MOL1         0.3603
     154    H19     22.467378   18.026500   14.807195 H          1 MOL1         0.3603
     155    H20     21.037558   17.305808   15.198221 H          1 MOL1         0.3603
@<TRIPOS>BOND
    1     1     2    1
    2     1     3    1
    3     1     4    1
    4     4     5    1
    5     4     6    1
    6     6     7    1
    7     4     8    1
    8     8     9    1
    9     8    10    1
   10    10    11    1
   11     8    12    1
   12    12    13    1
   13    12    14    1
   14    14    15    1
   15     1    16    1
   16    14    16    1
   17    14    17    1
   18    17    18    1
   19    17    19    1
   20    17    20    1
   21    20    21    1
   22    22    23    1
   23    22    24    1
   24    22    25    1
   25    25    26    1
   26    25    27    1
   27    27    28    1
   28    25    29    1
   29    29    30    1
   30    29    31    1
   31    31    32    1
   32     3    33    1
   33    29    33    1
   34    33    34    1
   35    33    35    1
   36    35    36    1
   37    22    37    1
   38    35    37    1
   39    35    38    1
   40    38    39    1
   41    38    40    1
   42    38    41    1
   43    41    42    1
   44    43    44    1
   45    43    45    1
   46    43    46    1
   47    46    47    1
   48    46    48    1
   49    48    49    1
   50    46    50    1
   51    50    51    1
   52    50    52    1
   53    52    53    1
   54    24    54    1
   55    50    54    1
   56    54    55    1
   57    54    56    1
   58    56    57    1
   59    43    58    1
   60    56    58    1
   61    56    59    1
   62    59    60    1
   63    59    61    1
   64    59    62    1
   65    62    63    1
   66    64    65    1
   67    64    66    1
   68    64    67    1
   69    67    68    1
   70    67    69    1
   71    69    70    1
   72    67    71    1
   73    71    72    1
   74    71    73    1
   75    73    74    1
   76    45    75    1
   77    71    75    1
   78    75    76    1
   79    75    77    1
   80    77    78    1
   81    64    79    1
   82    77    79    1
   83    77    80    1
   84    80    81    1
   85    80    82    1
   86    80    83    1
   87    83    84    1
   88    85    86    1
   89    85    87    1
   90    85    88    1
   91    88    89    1
   92    88    90    1
   93    90    91    1
   94    88    92    1
   95    92    93    1
   96    92    94    1
   97    94    95    1
   98    66    96    1
   99    92    96    1
  100    96    97    1
  101    96    98    1
  102    98    99    1
  103    85   100    1
  104    98   100    1
  105    98   101    1
  106   101   102    1
  107   101   103    1
  108   101   104    1
  109   104   105    1
  110   106   107    1
  111    12   108    1
  112   106   108    1
  113   106   109    1
  114   109   110    1
  115   109   111    1
  116   111   112    1
  117   109   113    1
  118   113   114    1
  119   113   115    1
  120   115   116    1
  121    87   117    1
  122   113   117    1
  123   117   118    1
  124   117   119    1
  125   119   120    1
  126   106   121    1
  127   119   121    1
  128   119   122    1
  129   122   123    1
  130   122   124    1
  131   122   125    1
  132   125   126    1
  133   127   128    1
  134   127   129    1
  135   127   130    1
  136   127   131    1
  137   131   132    1
  138   131   133    1
  139   131   134    1
  140   134   135    1
  141   134   136    1
  142   134   137    1
  143   137   138    1
  144   137   139    1
  145   137   140    1
  146   140   141    1
  147   140   142    1
  148   140   143    1
  149   143   144    1
  150   143   145    1
  151   143   146    1
  152   146   147    1
  153   146   148    1
  154   146   149    1
  155   149   150    1
  156   149   151    1
  157   149   152    1
  158   152   153    1
  159   152   154    1
  160   152   155    1
@<TRIPOS>SUBSTRUCTURE
       1 MOL1            1 RESIDUE      1      MOL     
       2 MOL1          155 RESIDUE      1      MOL     
@<SCITEGIC>MOL_PROPERTY
VM2 Rank
SciTegic.value.IntegerValue
5

@<SCITEGIC>MOL_PROPERTY
Conf_Id
SciTegic.value.IntegerValue
19282

@<SCITEGIC>MOL_PROPERTY
Probability
SciTegic.value.DoubleValue
1.51

@<SCITEGIC>MOL_PROPERTY
Sum Probability
SciTegic.value.DoubleValue
12.71

@<SCITEGIC>MOL_PROPERTY
Delta G
SciTegic.value.DoubleValue
0.724

@<SCITEGIC>MOL_PROPERTY
G
SciTegic.value.DoubleValue
574.796

@<SCITEGIC>MOL_PROPERTY
E
SciTegic.value.DoubleValue
366.137

@<SCITEGIC>MOL_PROPERTY
-TS
SciTegic.value.DoubleValue
208.660

@<SCITEGIC>MOL_PROPERTY
U+W
SciTegic.value.DoubleValue
229.317

@<SCITEGIC>MOL_PROPERTY
U
SciTegic.value.DoubleValue
297.069

@<SCITEGIC>MOL_PROPERTY
W
SciTegic.value.DoubleValue
-67.751

@<SCITEGIC>MOL_PROPERTY
W(PB)
SciTegic.value.DoubleValue
-73.831

@<SCITEGIC>MOL_PROPERTY
W(SA)
SciTegic.value.DoubleValue
6.080

@<SCITEGIC>MOL_PROPERTY
Valence
SciTegic.value.DoubleValue
147.642

@<SCITEGIC>MOL_PROPERTY
Coulomb
SciTegic.value.DoubleValue
176.667

@<SCITEGIC>MOL_PROPERTY
VdW
SciTegic.value.DoubleValue
-27.240

@<SCITEGIC>MOL_PROPERTY
VdW6
SciTegic.value.DoubleValue
-182.204

@<SCITEGIC>MOL_PROPERTY
VdW12
SciTegic.value.DoubleValue
154.963

@<SCITEGIC>MOL_PROPERTY
Bond
SciTegic.value.DoubleValue
4.307

@<SCITEGIC>MOL_PROPERTY
Angle
SciTegic.value.DoubleValue
9.576

@<SCITEGIC>MOL_PROPERTY
Pdih
SciTegic.value.DoubleValue
133.759

@<SCITEGIC>MOL_PROPERTY
Idih
SciTegic.value.DoubleValue
0.000

@<SCITEGIC>MOL_PROPERTY
Tether
SciTegic.value.DoubleValue
0.000

@<TRIPOS>MOLECULE
CD_guest-3_vm2_rndm.mol2 : vm2 host+ligand conformer 6
         155         160           2
SMALL
USER_CHARGES
 
@<TRIPOS>ATOM
       1    C1      16.199366   14.951747   21.420280 C.3        1 MOL1         0.2972
       2    H1      15.117000   14.783572   21.354914 H          1 MOL1         0.0751
       3    O1      16.531341   16.356255   21.397853 O.3        1 MOL1        -0.3740
       4    C2      16.754052   14.334961   22.728111 C.3        1 MOL1         0.1003
       5    H2      16.571789   13.253196   22.687079 H          1 MOL1         0.0783
       6    O2      16.094283   14.878922   23.881587 O.3        1 MOL1        -0.5519
       7    H3      15.784307   15.788850   23.643549 H          1 MOL1         0.3769
       8    C3      18.279577   14.557844   22.822219 C.3        1 MOL1         0.1053
       9    H4      18.449393   15.633761   22.942492 H          1 MOL1         0.0783
      10    O3      18.800791   13.860472   23.957761 O.3        1 MOL1        -0.5519
      11    H5      18.167837   14.053803   24.685075 H          1 MOL1         0.3769
      12    C4      19.004825   14.084681   21.537554 C.3        1 MOL1         0.1018
      13    H6      19.052510   12.987642   21.551221 H          1 MOL1         0.0783
      14    C5      18.306569   14.561403   20.231762 C.3        1 MOL1         0.1043
      15    H7      18.496517   15.634465   20.100939 H          1 MOL1         0.0783
      16    O4      16.880216   14.311337   20.321433 O.3        1 MOL1        -0.3740
      17    C6      18.823761   13.820434   18.980462 C.3        1 MOL1         0.0138
      18    H8      18.598600   12.749574   19.073171 H          1 MOL1         0.0794
      19    H9      19.912634   13.928719   18.915217 H          1 MOL1         0.0794
      20    O5      18.221191   14.359156   17.803192 O.3        1 MOL1        -0.5486
      21    H10     17.250620   14.313736   17.945670 H          1 MOL1         0.3769
      22    C7      14.906674   20.138564   20.764680 C.3        1 MOL1         0.2972
      23    H11     14.260465   20.983981   20.495273 H          1 MOL1         0.0751
      24    O6      16.250951   20.574333   21.051656 O.3        1 MOL1        -0.3740
      25    C8      14.335860   19.365651   21.984779 C.3        1 MOL1         0.1003
      26    H12     13.347979   18.987729   21.690865 H          1 MOL1         0.0783
      27    O7      14.181630   20.209556   23.135637 O.3        1 MOL1        -0.5519
      28    H13     15.083868   20.538778   23.378344 H          1 MOL1         0.3769
      29    C9      15.227431   18.146695   22.322673 C.3        1 MOL1         0.1053
      30    H14     16.202244   18.518541   22.667950 H          1 MOL1         0.0783
      31    O8      14.605900   17.377409   23.356177 O.3        1 MOL1        -0.5519
      32    H15     14.284298   18.038252   24.009805 H          1 MOL1         0.3769
      33    C10     15.459217   17.261703   21.072107 C.3        1 MOL1         0.1018
      34    H16     14.528437   16.731521   20.830652 H          1 MOL1         0.0783
      35    C11     15.895908   18.094741   19.838033 C.3        1 MOL1         0.1043
      36    H17     16.916385   18.458377   20.000853 H          1 MOL1         0.0783
      37    O9      14.979400   19.205769   19.665261 O.3        1 MOL1        -0.3740
      38    C12     15.881772   17.274287   18.532193 C.3        1 MOL1         0.0138
      39    H18     14.866519   16.898213   18.349099 H          1 MOL1         0.0794
      40    H19     16.546594   16.408879   18.642148 H          1 MOL1         0.0794
      41    O10     16.319614   18.086858   17.441388 O.3        1 MOL1        -0.5486
      42    H20     15.773307   18.902076   17.477429 H          1 MOL1         0.3769
      43    C13     18.535697   23.922060   21.870300 C.3        1 MOL1         0.2972
      44    H21     18.926767   24.912039   22.138214 H          1 MOL1         0.0751
      45    O11     19.546643   23.096648   21.257623 O.3        1 MOL1        -0.3740
      46    C14     17.982728   23.200119   23.126853 C.3        1 MOL1         0.1003
      47    H22     17.166048   23.817586   23.523051 H          1 MOL1         0.0783
      48    O12     18.988769   23.041504   24.140238 O.3        1 MOL1        -0.5519
      49    H23     19.747343   23.624644   23.894752 H          1 MOL1         0.3769
      50    C15     17.405323   21.818350   22.750121 C.3        1 MOL1         0.1053
      51    H24     18.246201   21.189871   22.437972 H          1 MOL1         0.0783
      52    O13     16.777090   21.244378   23.899932 O.3        1 MOL1        -0.5519
      53    H25     17.412686   21.407400   24.633047 H          1 MOL1         0.3769
      54    C16     16.400930   21.910025   21.573023 C.3        1 MOL1         0.1018
      55    H26     15.452140   22.311259   21.953399 H          1 MOL1         0.0783
      56    C17     16.922613   22.800677   20.409251 C.3        1 MOL1         0.1043
      57    H27     17.720509   22.254083   19.888920 H          1 MOL1         0.0783
      58    O14     17.446848   24.048303   20.930955 O.3        1 MOL1        -0.3740
      59    C18     15.839867   23.144797   19.362335 C.3        1 MOL1         0.0138
      60    H28     15.519426   22.221403   18.861998 H          1 MOL1         0.0794
      61    H29     16.283780   23.793287   18.595156 H          1 MOL1         0.0794
      62    O15     14.717876   23.791102   19.970216 O.3        1 MOL1        -0.5486
      63    H30     15.069239   24.594663   20.414383 H          1 MOL1         0.3769
      64    C19     23.613345   22.860170   20.740140 C.3        1 MOL1         0.2972
      65    H31     24.678381   22.970257   20.498143 H          1 MOL1         0.0751
      66    O16     23.278958   21.492698   21.060064 O.3        1 MOL1        -0.3740
      67    C20     23.200073   23.791476   21.909468 C.3        1 MOL1         0.1003
      68    H32     23.338907   24.823340   21.561194 H          1 MOL1         0.0783
      69    O17     24.008750   23.588708   23.077229 O.3        1 MOL1        -0.5519
      70    H33     23.831785   22.666763   23.393235 H          1 MOL1         0.3769
      71    C21     21.701208   23.601415   22.244640 C.3        1 MOL1         0.1053
      72    H34     21.570162   22.589641   22.653862 H          1 MOL1         0.0783
      73    O18     21.318179   24.573737   23.223442 O.3        1 MOL1        -0.5519
      74    H35     22.075808   24.615834   23.850538 H          1 MOL1         0.3769
      75    C22     20.810364   23.728255   20.976529 C.3        1 MOL1         0.1018
      76    H36     20.681981   24.788318   20.719671 H          1 MOL1         0.0783
      77    C23     21.387516   22.985665   19.740200 C.3        1 MOL1         0.1043
      78    H37     21.218370   21.909424   19.867511 H          1 MOL1         0.0783
      79    O19     22.806170   23.252523   19.611053 O.3        1 MOL1        -0.3740
      80    C24     20.701914   23.432765   18.431617 C.3        1 MOL1         0.0138
      81    H38     20.929791   24.490944   18.246218 H          1 MOL1         0.0794
      82    H39     19.613375   23.340532   18.544180 H          1 MOL1         0.0794
      83    O20     21.147911   22.625143   17.340324 O.3        1 MOL1        -0.5486
      84    H40     22.129780   22.653707   17.363219 H          1 MOL1         0.3769
      85    C25     24.822823   17.839068   22.217531 C.3        1 MOL1         0.2972
      86    H41     25.439932   17.003201   22.571007 H          1 MOL1         0.0751
      87    O21     23.595161   17.378068   21.617726 O.3        1 MOL1        -0.3740
      88    C26     24.482633   18.792850   23.391239 C.3        1 MOL1         0.1003
      89    H42     25.434307   19.179611   23.778423 H          1 MOL1         0.0783
      90    O22     23.790433   18.109996   24.447853 O.3        1 MOL1        -0.5519
      91    H43     23.917873   17.141917   24.300161 H          1 MOL1         0.3769
      92    C27     23.641196   19.991979   22.897843 C.3        1 MOL1         0.1053
      93    H44     22.662679   19.613845   22.578819 H          1 MOL1         0.0783
      94    O23     23.468918   20.910165   23.980536 O.3        1 MOL1        -0.5519
      95    H45     23.219837   20.341825   24.744267 H          1 MOL1         0.3769
      96    C28     24.302125   20.694424   21.684496 C.3        1 MOL1         0.1018
      97    H46     25.141949   21.305200   22.041533 H          1 MOL1         0.0783
      98    C29     24.796880   19.685866   20.609046 C.3        1 MOL1         0.1043
      99    H47     23.917748   19.275089   20.095049 H          1 MOL1         0.0783
     100    O24     25.542019   18.608702   21.230640 O.3        1 MOL1        -0.3740
     101    C30     25.703050   20.330753   19.536836 C.3        1 MOL1         0.0138
     102    H48     25.119587   21.071546   18.974108 H          1 MOL1         0.0794
     103    H49     26.017118   19.554590   18.826157 H          1 MOL1         0.0794
     104    O25     26.846299   20.952205   20.131097 O.3        1 MOL1        -0.5486
     105    H50     27.310058   20.248899   20.637920 H          1 MOL1         0.3769
     106    C31     21.431256   13.830329   21.279179 C.3        1 MOL1         0.2972
     107    H51     21.116908   12.798039   21.080530 H          1 MOL1         0.0751
     108    O26     20.312715   14.684422   21.585747 O.3        1 MOL1        -0.3740
     109    C32     22.402629   13.876992   22.483918 C.3        1 MOL1         0.1003
     110    H52     23.266014   13.247303   22.232462 H          1 MOL1         0.0783
     111    O27     21.773115   13.361846   23.668349 O.3        1 MOL1        -0.5519
     112    H53     20.844509   13.706428   23.685194 H          1 MOL1         0.3769
     113    C33     22.919168   15.316271   22.730228 C.3        1 MOL1         0.1053
     114    H54     22.073880   15.924550   23.079718 H          1 MOL1         0.0783
     115    O28     23.932536   15.268527   23.740219 O.3        1 MOL1        -0.5519
     116    H55     23.591414   14.630737   24.408206 H          1 MOL1         0.3769
     117    C34     23.466686   15.955746   21.422237 C.3        1 MOL1         0.1018
     118    H56     24.430260   15.500473   21.157063 H          1 MOL1         0.0783
     119    C35     22.485141   15.771182   20.236071 C.3        1 MOL1         0.1043
     120    H57     21.596189   16.387254   20.415555 H          1 MOL1         0.0783
     121    O29     22.117435   14.375346   20.133768 O.3        1 MOL1        -0.3740
     122    C36     23.101733   16.195226   18.886963 C.3        1 MOL1         0.0138
     123    H58     23.899859   15.492016   18.614062 H          1 MOL1         0.0794
     124    H59     23.554953   17.189558   18.990874 H          1 MOL1         0.0794
     125    O30     22.090947   16.230739   17.877129 O.3        1 MOL1        -0.5486
     126    H60     21.659845   15.348785   17.879808 H          1 MOL1         0.3769
     127    C1      20.067071   17.823688   24.718228 C.3        1 MOL1        -0.2427
     128    H1      19.783179   18.232308   25.696340 H          1 MOL1         0.0958
     129    H2      19.571662   16.851812   24.602523 H          1 MOL1         0.0958
     130    H3      21.150758   17.654692   24.727335 H          1 MOL1         0.0958
     131    C2      19.667707   18.794710   23.588011 C.3        1 MOL1        -0.1412
     132    H4      20.154707   19.766596   23.752951 H          1 MOL1         0.0947
     133    H5      18.583817   18.970705   23.627278 H          1 MOL1         0.0947
     134    C3      20.055189   18.245542   22.198732 C.3        1 MOL1        -0.1437
     135    H6      21.131029   18.041563   22.169513 H          1 MOL1         0.0947
     136    H7      19.548984   17.288798   22.028338 H          1 MOL1         0.0947
     137    C4      19.678779   19.223846   21.068638 C.3        1 MOL1        -0.1437
     138    H8      20.196847   20.181756   21.214719 H          1 MOL1         0.0947
     139    H9      18.604193   19.428324   21.124248 H          1 MOL1         0.0947
     140    C5      20.012497   18.654934   19.674280 C.3        1 MOL1        -0.1437
     141    H10     21.101024   18.550337   19.568660 H          1 MOL1         0.0947
     142    H11     19.582402   17.649666   19.571592 H          1 MOL1         0.0947
     143    C6      19.466712   19.553268   18.545378 C.3        1 MOL1        -0.1437
     144    H12     19.923218   20.547280   18.610764 H          1 MOL1         0.0947
     145    H13     18.384672   19.694103   18.669956 H          1 MOL1         0.0947
     146    C7      19.744887   18.949227   17.154414 C.3        1 MOL1        -0.1477
     147    H14     20.824996   18.798660   17.023336 H          1 MOL1         0.0947
     148    H15     19.269290   17.961287   17.080728 H          1 MOL1         0.0947
     149    C8      19.209761   19.862227   16.039484 C.3        1 MOL1         0.0145
     150    H16     19.704117   20.836804   16.093070 H          1 MOL1         0.0921
     151    H17     18.134673   20.010256   16.173525 H          1 MOL1         0.0921
     152    N1      19.433235   19.293615   14.654001 N.4        1 MOL1        -0.5969
     153    H18     20.429113   19.145312   14.461871 H          1 MOL1         0.3603
     154    H19     19.073052   19.917271   13.924032 H          1 MOL1         0.3603
     155    H20     18.962699   18.389810   14.539380 H          1 MOL1         0.3603
@<TRIPOS>BOND
    1     1     2    1
    2     1     3    1
    3     1     4    1
    4     4     5    1
    5     4     6    1
    6     6     7    1
    7     4     8    1
    8     8     9    1
    9     8    10    1
   10    10    11    1
   11     8    12    1
   12    12    13    1
   13    12    14    1
   14    14    15    1
   15     1    16    1
   16    14    16    1
   17    14    17    1
   18    17    18    1
   19    17    19    1
   20    17    20    1
   21    20    21    1
   22    22    23    1
   23    22    24    1
   24    22    25    1
   25    25    26    1
   26    25    27    1
   27    27    28    1
   28    25    29    1
   29    29    30    1
   30    29    31    1
   31    31    32    1
   32     3    33    1
   33    29    33    1
   34    33    34    1
   35    33    35    1
   36    35    36    1
   37    22    37    1
   38    35    37    1
   39    35    38    1
   40    38    39    1
   41    38    40    1
   42    38    41    1
   43    41    42    1
   44    43    44    1
   45    43    45    1
   46    43    46    1
   47    46    47    1
   48    46    48    1
   49    48    49    1
   50    46    50    1
   51    50    51    1
   52    50    52    1
   53    52    53    1
   54    24    54    1
   55    50    54    1
   56    54    55    1
   57    54    56    1
   58    56    57    1
   59    43    58    1
   60    56    58    1
   61    56    59    1
   62    59    60    1
   63    59    61    1
   64    59    62    1
   65    62    63    1
   66    64    65    1
   67    64    66    1
   68    64    67    1
   69    67    68    1
   70    67    69    1
   71    69    70    1
   72    67    71    1
   73    71    72    1
   74    71    73    1
   75    73    74    1
   76    45    75    1
   77    71    75    1
   78    75    76    1
   79    75    77    1
   80    77    78    1
   81    64    79    1
   82    77    79    1
   83    77    80    1
   84    80    81    1
   85    80    82    1
   86    80    83    1
   87    83    84    1
   88    85    86    1
   89    85    87    1
   90    85    88    1
   91    88    89    1
   92    88    90    1
   93    90    91    1
   94    88    92    1
   95    92    93    1
   96    92    94    1
   97    94    95    1
   98    66    96    1
   99    92    96    1
  100    96    97    1
  101    96    98    1
  102    98    99    1
  103    85   100    1
  104    98   100    1
  105    98   101    1
  106   101   102    1
  107   101   103    1
  108   101   104    1
  109   104   105    1
  110   106   107    1
  111    12   108    1
  112   106   108    1
  113   106   109    1
  114   109   110    1
  115   109   111    1
  116   111   112    1
  117   109   113    1
  118   113   114    1
  119   113   115    1
  120   115   116    1
  121    87   117    1
  122   113   117    1
  123   117   118    1
  124   117   119    1
  125   119   120    1
  126   106   121    1
  127   119   121    1
  128   119   122    1
  129   122   123    1
  130   122   124    1
  131   122   125    1
  132   125   126    1
  133   127   128    1
  134   127   129    1
  135   127   130    1
  136   127   131    1
  137   131   132    1
  138   131   133    1
  139   131   134    1
  140   134   135    1
  141   134   136    1
  142   134   137    1
  143   137   138    1
  144   137   139    1
  145   137   140    1
  146   140   141    1
  147   140   142    1
  148   140   143    1
  149   143   144    1
  150   143   145    1
  151   143   146    1
  152   146   147    1
  153   146   148    1
  154   146   149    1
  155   149   150    1
  156   149   151    1
  157   149   152    1
  158   152   153    1
  159   152   154    1
  160   152   155    1
@<TRIPOS>SUBSTRUCTURE
       1 MOL1            1 RESIDUE      1      MOL     
       2 MOL1          155 RESIDUE      1      MOL     
@<SCITEGIC>MOL_PROPERTY
VM2 Rank
SciTegic.value.IntegerValue
6

@<SCITEGIC>MOL_PROPERTY
Conf_Id
SciTegic.value.IntegerValue
16689

@<SCITEGIC>MOL_PROPERTY
Probability
SciTegic.value.DoubleValue
1.48

@<SCITEGIC>MOL_PROPERTY
Sum Probability
SciTegic.value.DoubleValue
14.19

@<SCITEGIC>MOL_PROPERTY
Delta G
SciTegic.value.DoubleValue
0.733

@<SCITEGIC>MOL_PROPERTY
G
SciTegic.value.DoubleValue
574.806

@<SCITEGIC>MOL_PROPERTY
E
SciTegic.value.DoubleValue
367.763

@<SCITEGIC>MOL_PROPERTY
-TS
SciTegic.value.DoubleValue
207.043

@<SCITEGIC>MOL_PROPERTY
U+W
SciTegic.value.DoubleValue
230.944

@<SCITEGIC>MOL_PROPERTY
U
SciTegic.value.DoubleValue
300.062

@<SCITEGIC>MOL_PROPERTY
W
SciTegic.value.DoubleValue
-69.118

@<SCITEGIC>MOL_PROPERTY
W(PB)
SciTegic.value.DoubleValue
-75.233

@<SCITEGIC>MOL_PROPERTY
W(SA)
SciTegic.value.DoubleValue
6.115

@<SCITEGIC>MOL_PROPERTY
Valence
SciTegic.value.DoubleValue
147.507

@<SCITEGIC>MOL_PROPERTY
Coulomb
SciTegic.value.DoubleValue
181.586

@<SCITEGIC>MOL_PROPERTY
VdW
SciTegic.value.DoubleValue
-29.032

@<SCITEGIC>MOL_PROPERTY
VdW6
SciTegic.value.DoubleValue
-180.735

@<SCITEGIC>MOL_PROPERTY
VdW12
SciTegic.value.DoubleValue
151.704

@<SCITEGIC>MOL_PROPERTY
Bond
SciTegic.value.DoubleValue
4.261

@<SCITEGIC>MOL_PROPERTY
Angle
SciTegic.value.DoubleValue
9.291

@<SCITEGIC>MOL_PROPERTY
Pdih
SciTegic.value.DoubleValue
133.956

@<SCITEGIC>MOL_PROPERTY
Idih
SciTegic.value.DoubleValue
0.000

@<SCITEGIC>MOL_PROPERTY
Tether
SciTegic.value.DoubleValue
0.000

@<TRIPOS>MOLECULE
CD_guest-3_vm2_rndm.mol2 : vm2 host+ligand conformer 7
         155         160           2
SMALL
USER_CHARGES
 
@<TRIPOS>ATOM
       1    C1      16.109889   14.952415   21.563525 C.3        1 MOL1         0.2972
       2    H1      15.025979   14.787453   21.611770 H          1 MOL1         0.0751
       3    O1      16.439716   16.346003   21.399128 O.3        1 MOL1        -0.3740
       4    C2      16.787861   14.451339   22.861238 C.3        1 MOL1         0.1003
       5    H2      16.626483   13.367352   22.925003 H          1 MOL1         0.0783
       6    O2      16.219899   15.083529   24.019273 O.3        1 MOL1        -0.5519
       7    H3      15.822817   15.940049   23.722179 H          1 MOL1         0.3769
       8    C3      18.310270   14.707801   22.799977 C.3        1 MOL1         0.1053
       9    H4      18.462072   15.792112   22.810377 H          1 MOL1         0.0783
      10    O3      18.938187   14.124260   23.944853 O.3        1 MOL1        -0.5519
      11    H5      18.356706   14.366127   24.700300 H          1 MOL1         0.3769
      12    C4      18.938287   14.144506   21.500177 C.3        1 MOL1         0.1018
      13    H6      19.047438   13.057571   21.612475 H          1 MOL1         0.0783
      14    C5      18.103990   14.469358   20.227095 C.3        1 MOL1         0.1043
      15    H7      18.253419   15.529304   19.981297 H          1 MOL1         0.0783
      16    O4      16.694165   14.221466   20.464952 O.3        1 MOL1        -0.3740
      17    C6      18.525755   13.644417   18.991174 C.3        1 MOL1         0.0138
      18    H8      19.560057   13.899299   18.725399 H          1 MOL1         0.0794
      19    H9      17.890978   13.930624   18.141843 H          1 MOL1         0.0794
      20    O5      18.413199   12.241185   19.245074 O.3        1 MOL1        -0.5486
      21    H10     17.478329   12.082431   19.504484 H          1 MOL1         0.3769
      22    C7      14.904780   20.121869   20.680906 C.3        1 MOL1         0.2972
      23    H11     14.288792   20.984417   20.395694 H          1 MOL1         0.0751
      24    O6      16.271050   20.515454   20.933506 O.3        1 MOL1        -0.3740
      25    C8      14.310615   19.399584   21.923430 C.3        1 MOL1         0.1003
      26    H12     13.306899   19.054932   21.642608 H          1 MOL1         0.0783
      27    O7      14.196754   20.271042   23.058057 O.3        1 MOL1        -0.5519
      28    H13     15.118168   20.530450   23.313184 H          1 MOL1         0.3769
      29    C9      15.153314   18.154631   22.287533 C.3        1 MOL1         0.1053
      30    H14     16.138846   18.501030   22.627461 H          1 MOL1         0.0783
      31    O8      14.508728   17.427764   23.337588 O.3        1 MOL1        -0.5519
      32    H15     14.205992   18.112011   23.975915 H          1 MOL1         0.3769
      33    C10     15.360890   17.233648   21.059298 C.3        1 MOL1         0.1018
      34    H16     14.429851   16.695105   20.837797 H          1 MOL1         0.0783
      35    C11     15.805326   18.022068   19.801709 C.3        1 MOL1         0.1043
      36    H17     16.836348   18.355413   19.956119 H          1 MOL1         0.0783
      37    O9      14.928054   19.159221   19.605613 O.3        1 MOL1        -0.3740
      38    C12     15.763116   17.169207   18.517500 C.3        1 MOL1         0.0138
      39    H18     14.720564   16.917177   18.281780 H          1 MOL1         0.0794
      40    H19     16.304053   16.229442   18.684715 H          1 MOL1         0.0794
      41    O10     16.365504   17.888392   17.439622 O.3        1 MOL1        -0.5486
      42    H20     15.904615   18.754981   17.398952 H          1 MOL1         0.3769
      43    C13     18.587605   23.846166   21.892124 C.3        1 MOL1         0.2972
      44    H21     18.937740   24.832745   22.221764 H          1 MOL1         0.0751
      45    O11     19.631719   23.110685   21.223819 O.3        1 MOL1        -0.3740
      46    C14     18.070710   23.023741   23.103748 C.3        1 MOL1         0.1003
      47    H22     17.253610   23.599489   23.557653 H          1 MOL1         0.0783
      48    O12     19.095537   22.808074   24.087242 O.3        1 MOL1        -0.5519
      49    H23     19.787596   23.497562   23.945210 H          1 MOL1         0.3769
      50    C15     17.502897   21.662283   22.646327 C.3        1 MOL1         0.1053
      51    H24     18.339475   21.066348   22.264300 H          1 MOL1         0.0783
      52    O13     16.907165   21.007386   23.770295 O.3        1 MOL1        -0.5519
      53    H25     17.571694   21.106809   24.488609 H          1 MOL1         0.3769
      54    C16     16.470983   21.824865   21.504938 C.3        1 MOL1         0.1018
      55    H26     15.543616   22.235971   21.924878 H          1 MOL1         0.0783
      56    C17     16.993623   22.760113   20.379311 C.3        1 MOL1         0.1043
      57    H27     17.804129   22.243706   19.847515 H          1 MOL1         0.0783
      58    O14     17.493627   23.991735   20.960148 O.3        1 MOL1        -0.3740
      59    C18     15.915342   23.134021   19.337892 C.3        1 MOL1         0.0138
      60    H28     15.608132   22.227303   18.800086 H          1 MOL1         0.0794
      61    H29     16.358499   23.816007   18.599896 H          1 MOL1         0.0794
      62    O15     14.781990   23.745092   19.961243 O.3        1 MOL1        -0.5486
      63    H30     15.122542   24.532176   20.441817 H          1 MOL1         0.3769
      64    C19     23.710961   22.986125   20.875076 C.3        1 MOL1         0.2972
      65    H31     24.785580   23.106201   20.686081 H          1 MOL1         0.0751
      66    O16     23.362029   21.606577   21.120211 O.3        1 MOL1        -0.3740
      67    C20     23.239447   23.869369   22.058156 C.3        1 MOL1         0.1003
      68    H32     23.373501   24.914635   21.750190 H          1 MOL1         0.0783
      69    O17     24.008939   23.640826   23.247076 O.3        1 MOL1        -0.5519
      70    H33     23.837061   22.706295   23.526226 H          1 MOL1         0.3769
      71    C21     21.731722   23.644254   22.327130 C.3        1 MOL1         0.1053
      72    H34     21.603238   22.617029   22.696562 H          1 MOL1         0.0783
      73    O18     21.298218   24.576072   23.324456 O.3        1 MOL1        -0.5519
      74    H35     22.035703   24.613251   23.975524 H          1 MOL1         0.3769
      75    C22     20.884074   23.800083   21.030675 C.3        1 MOL1         0.1018
      76    H36     20.725695   24.866405   20.820997 H          1 MOL1         0.0783
      77    C23     21.532925   23.141634   19.781460 C.3        1 MOL1         0.1043
      78    H37     21.374603   22.058939   19.840983 H          1 MOL1         0.0783
      79    O19     22.952892   23.429093   19.731412 O.3        1 MOL1        -0.3740
      80    C24     20.901264   23.649935   18.468447 C.3        1 MOL1         0.0138
      81    H38     21.089724   24.727236   18.368803 H          1 MOL1         0.0794
      82    H39     19.813587   23.503017   18.510863 H          1 MOL1         0.0794
      83    O20     21.446763   22.941147   17.353655 O.3        1 MOL1        -0.5486
      84    H40     22.423181   23.011301   17.439939 H          1 MOL1         0.3769
      85    C25     24.740692   17.877879   22.201235 C.3        1 MOL1         0.2972
      86    H41     25.316550   17.008205   22.542161 H          1 MOL1         0.0751
      87    O21     23.509447   17.482920   21.560311 O.3        1 MOL1        -0.3740
      88    C26     24.406844   18.801158   23.399261 C.3        1 MOL1         0.1003
      89    H42     25.361331   19.128225   23.831868 H          1 MOL1         0.0783
      90    O22     23.646876   18.108518   24.403053 O.3        1 MOL1        -0.5519
      91    H43     23.745822   17.141741   24.226139 H          1 MOL1         0.3769
      92    C27     23.636022   20.054316   22.926319 C.3        1 MOL1         0.1053
      93    H44     22.653319   19.730025   22.567483 H          1 MOL1         0.0783
      94    O23     23.471166   20.938964   24.037123 O.3        1 MOL1        -0.5519
      95    H45     23.179704   20.355502   24.774006 H          1 MOL1         0.3769
      96    C28     24.349679   20.770229   21.751292 C.3        1 MOL1         0.1018
      97    H46     25.195734   21.350198   22.143355 H          1 MOL1         0.0783
      98    C29     24.837527   19.777755   20.658125 C.3        1 MOL1         0.1043
      99    H47     23.959259   19.420478   20.104484 H          1 MOL1         0.0783
     100    O24     25.517767   18.649416   21.261031 O.3        1 MOL1        -0.3740
     101    C30     25.800559   20.422374   19.636749 C.3        1 MOL1         0.0138
     102    H48     25.266461   21.211130   19.090322 H          1 MOL1         0.0794
     103    H49     26.099420   19.661490   18.903353 H          1 MOL1         0.0794
     104    O25     26.953269   20.966773   20.285676 O.3        1 MOL1        -0.5486
     105    H50     27.368797   20.224151   20.778093 H          1 MOL1         0.3769
     106    C31     21.326945   13.964679   20.997693 C.3        1 MOL1         0.2972
     107    H51     21.007208   12.949934   20.727337 H          1 MOL1         0.0751
     108    O26     20.209605   14.803516   21.347342 O.3        1 MOL1        -0.3740
     109    C32     22.302400   13.937410   22.201432 C.3        1 MOL1         0.1003
     110    H52     23.176175   13.346331   21.897623 H          1 MOL1         0.0783
     111    O27     21.701188   13.320874   23.350850 O.3        1 MOL1        -0.5519
     112    H53     20.807694   13.730454   23.477545 H          1 MOL1         0.3769
     113    C33     22.792754   15.366392   22.544495 C.3        1 MOL1         0.1053
     114    H54     21.933228   15.947963   22.906346 H          1 MOL1         0.0783
     115    O28     23.783771   15.273306   23.573759 O.3        1 MOL1        -0.5519
     116    H55     23.440754   14.586977   24.190776 H          1 MOL1         0.3769
     117    C34     23.362174   16.075709   21.282913 C.3        1 MOL1         0.1018
     118    H56     24.324674   15.624060   21.007616 H          1 MOL1         0.0783
     119    C35     22.399532   15.961815   20.071423 C.3        1 MOL1         0.1043
     120    H57     21.512711   16.579699   20.259373 H          1 MOL1         0.0783
     121    O29     22.019536   14.576031   19.889442 O.3        1 MOL1        -0.3740
     122    C36     23.059008   16.437272   18.760169 C.3        1 MOL1         0.0138
     123    H58     23.915290   15.789704   18.529178 H          1 MOL1         0.0794
     124    H59     23.439431   17.457964   18.893912 H          1 MOL1         0.0794
     125    O30     22.107460   16.408258   17.695241 O.3        1 MOL1        -0.5486
     126    H60     21.733681   15.500594   17.690917 H          1 MOL1         0.3769
     127    C1      19.166297   18.207061   24.476051 C.3        1 MOL1        -0.2427
     128    H1      19.221564   17.112365   24.455081 H          1 MOL1         0.0958
     129    H2      19.519960   18.537285   25.461082 H          1 MOL1         0.0958
     130    H3      18.113441   18.501608   24.378611 H          1 MOL1         0.0958
     131    C2      20.028504   18.828492   23.357952 C.3        1 MOL1        -0.1412
     132    H4      21.056704   18.456972   23.454589 H          1 MOL1         0.0947
     133    H5      20.068050   19.918432   23.495205 H          1 MOL1         0.0947
     134    C3      19.485848   18.496022   21.950629 C.3        1 MOL1        -0.1437
     135    H6      19.538154   17.413629   21.784895 H          1 MOL1         0.0947
     136    H7      18.425548   18.774218   21.889502 H          1 MOL1         0.0947
     137    C4      20.274077   19.216305   20.834689 C.3        1 MOL1        -0.1437
     138    H8      21.323211   18.896578   20.862518 H          1 MOL1         0.0947
     139    H9      20.268197   20.299980   21.013261 H          1 MOL1         0.0947
     140    C5      19.678366   18.916722   19.442113 C.3        1 MOL1        -0.1437
     141    H10     19.593668   17.830272   19.300143 H          1 MOL1         0.0947
     142    H11     18.664328   19.331207   19.384525 H          1 MOL1         0.0947
     143    C6      20.524647   19.516873   18.302098 C.3        1 MOL1        -0.1437
     144    H12     21.559366   19.155280   18.374623 H          1 MOL1         0.0947
     145    H13     20.555654   20.606949   18.406390 H          1 MOL1         0.0947
     146    C7      19.949482   19.159964   16.916274 C.3        1 MOL1        -0.1477
     147    H14     19.933667   18.068632   16.793224 H          1 MOL1         0.0947
     148    H15     18.910306   19.507933   16.844725 H          1 MOL1         0.0947
     149    C8      20.784882   19.793603   15.791679 C.3        1 MOL1         0.0145
     150    H16     21.815144   19.432654   15.853064 H          1 MOL1         0.0921
     151    H17     20.792856   20.881441   15.907760 H          1 MOL1         0.0921
     152    N1      20.256465   19.470511   14.409505 N.4        1 MOL1        -0.5969
     153    H18     19.295260   19.803758   14.283718 H          1 MOL1         0.3603
     154    H19     20.253239   18.460600   14.233039 H          1 MOL1         0.3603
     155    H20     20.825080   19.903955   13.674230 H          1 MOL1         0.3603
@<TRIPOS>BOND
    1     1     2    1
    2     1     3    1
    3     1     4    1
    4     4     5    1
    5     4     6    1
    6     6     7    1
    7     4     8    1
    8     8     9    1
    9     8    10    1
   10    10    11    1
   11     8    12    1
   12    12    13    1
   13    12    14    1
   14    14    15    1
   15     1    16    1
   16    14    16    1
   17    14    17    1
   18    17    18    1
   19    17    19    1
   20    17    20    1
   21    20    21    1
   22    22    23    1
   23    22    24    1
   24    22    25    1
   25    25    26    1
   26    25    27    1
   27    27    28    1
   28    25    29    1
   29    29    30    1
   30    29    31    1
   31    31    32    1
   32     3    33    1
   33    29    33    1
   34    33    34    1
   35    33    35    1
   36    35    36    1
   37    22    37    1
   38    35    37    1
   39    35    38    1
   40    38    39    1
   41    38    40    1
   42    38    41    1
   43    41    42    1
   44    43    44    1
   45    43    45    1
   46    43    46    1
   47    46    47    1
   48    46    48    1
   49    48    49    1
   50    46    50    1
   51    50    51    1
   52    50    52    1
   53    52    53    1
   54    24    54    1
   55    50    54    1
   56    54    55    1
   57    54    56    1
   58    56    57    1
   59    43    58    1
   60    56    58    1
   61    56    59    1
   62    59    60    1
   63    59    61    1
   64    59    62    1
   65    62    63    1
   66    64    65    1
   67    64    66    1
   68    64    67    1
   69    67    68    1
   70    67    69    1
   71    69    70    1
   72    67    71    1
   73    71    72    1
   74    71    73    1
   75    73    74    1
   76    45    75    1
   77    71    75    1
   78    75    76    1
   79    75    77    1
   80    77    78    1
   81    64    79    1
   82    77    79    1
   83    77    80    1
   84    80    81    1
   85    80    82    1
   86    80    83    1
   87    83    84    1
   88    85    86    1
   89    85    87    1
   90    85    88    1
   91    88    89    1
   92    88    90    1
   93    90    91    1
   94    88    92    1
   95    92    93    1
   96    92    94    1
   97    94    95    1
   98    66    96    1
   99    92    96    1
  100    96    97    1
  101    96    98    1
  102    98    99    1
  103    85   100    1
  104    98   100    1
  105    98   101    1
  106   101   102    1
  107   101   103    1
  108   101   104    1
  109   104   105    1
  110   106   107    1
  111    12   108    1
  112   106   108    1
  113   106   109    1
  114   109   110    1
  115   109   111    1
  116   111   112    1
  117   109   113    1
  118   113   114    1
  119   113   115    1
  120   115   116    1
  121    87   117    1
  122   113   117    1
  123   117   118    1
  124   117   119    1
  125   119   120    1
  126   106   121    1
  127   119   121    1
  128   119   122    1
  129   122   123    1
  130   122   124    1
  131   122   125    1
  132   125   126    1
  133   127   128    1
  134   127   129    1
  135   127   130    1
  136   127   131    1
  137   131   132    1
  138   131   133    1
  139   131   134    1
  140   134   135    1
  141   134   136    1
  142   134   137    1
  143   137   138    1
  144   137   139    1
  145   137   140    1
  146   140   141    1
  147   140   142    1
  148   140   143    1
  149   143   144    1
  150   143   145    1
  151   143   146    1
  152   146   147    1
  153   146   148    1
  154   146   149    1
  155   149   150    1
  156   149   151    1
  157   149   152    1
  158   152   153    1
  159   152   154    1
  160   152   155    1
@<TRIPOS>SUBSTRUCTURE
       1 MOL1            1 RESIDUE      1      MOL     
       2 MOL1          155 RESIDUE      1      MOL     
@<SCITEGIC>MOL_PROPERTY
VM2 Rank
SciTegic.value.IntegerValue
7

@<SCITEGIC>MOL_PROPERTY
Conf_Id
SciTegic.value.IntegerValue
17074

@<SCITEGIC>MOL_PROPERTY
Probability
SciTegic.value.DoubleValue
1.46

@<SCITEGIC>MOL_PROPERTY
Sum Probability
SciTegic.value.DoubleValue
15.65

@<SCITEGIC>MOL_PROPERTY
Delta G
SciTegic.value.DoubleValue
0.743

@<SCITEGIC>MOL_PROPERTY
G
SciTegic.value.DoubleValue
574.815

@<SCITEGIC>MOL_PROPERTY
E
SciTegic.value.DoubleValue
367.057

@<SCITEGIC>MOL_PROPERTY
-TS
SciTegic.value.DoubleValue
207.758

@<SCITEGIC>MOL_PROPERTY
U+W
SciTegic.value.DoubleValue
230.238

@<SCITEGIC>MOL_PROPERTY
U
SciTegic.value.DoubleValue
301.669

@<SCITEGIC>MOL_PROPERTY
W
SciTegic.value.DoubleValue
-71.431

@<SCITEGIC>MOL_PROPERTY
W(PB)
SciTegic.value.DoubleValue
-77.641

@<SCITEGIC>MOL_PROPERTY
W(SA)
SciTegic.value.DoubleValue
6.210

@<SCITEGIC>MOL_PROPERTY
Valence
SciTegic.value.DoubleValue
147.087

@<SCITEGIC>MOL_PROPERTY
Coulomb
SciTegic.value.DoubleValue
182.625

@<SCITEGIC>MOL_PROPERTY
VdW
SciTegic.value.DoubleValue
-28.044

@<SCITEGIC>MOL_PROPERTY
VdW6
SciTegic.value.DoubleValue
-181.202

@<SCITEGIC>MOL_PROPERTY
VdW12
SciTegic.value.DoubleValue
153.158

@<SCITEGIC>MOL_PROPERTY
Bond
SciTegic.value.DoubleValue
4.335

@<SCITEGIC>MOL_PROPERTY
Angle
SciTegic.value.DoubleValue
9.921

@<SCITEGIC>MOL_PROPERTY
Pdih
SciTegic.value.DoubleValue
132.832

@<SCITEGIC>MOL_PROPERTY
Idih
SciTegic.value.DoubleValue
0.000

@<SCITEGIC>MOL_PROPERTY
Tether
SciTegic.value.DoubleValue
0.000

@<TRIPOS>MOLECULE
CD_guest-3_vm2_rndm.mol2 : vm2 host+ligand conformer 8
         155         160           2
SMALL
USER_CHARGES
 
@<TRIPOS>ATOM
       1    C1      16.347909   15.178576   21.736800 C.3        1 MOL1         0.2972
       2    H1      15.270811   15.075040   21.921135 H          1 MOL1         0.0751
       3    O1      16.689442   16.512159   21.306674 O.3        1 MOL1        -0.3740
       4    C2      17.147229   14.842969   23.020945 C.3        1 MOL1         0.1003
       5    H2      16.932502   13.795776   23.270889 H          1 MOL1         0.0783
       6    O2      16.752673   15.676946   24.121522 O.3        1 MOL1        -0.5519
       7    H3      15.967322   16.198628   23.825247 H          1 MOL1         0.3769
       8    C3      18.667351   14.974078   22.770249 C.3        1 MOL1         0.1053
       9    H4      18.893651   16.033155   22.605813 H          1 MOL1         0.0783
      10    O3      19.371927   14.514046   23.926326 O.3        1 MOL1        -0.5519
      11    H5      18.900777   14.930297   24.683150 H          1 MOL1         0.3769
      12    C4      19.116349   14.184433   21.513807 C.3        1 MOL1         0.1018
      13    H6      19.186723   13.119984   21.774772 H          1 MOL1         0.0783
      14    C5      18.161203   14.376640   20.300729 C.3        1 MOL1         0.1043
      15    H7      18.333774   15.379557   19.888751 H          1 MOL1         0.0783
      16    O4      16.776453   14.255402   20.713911 O.3        1 MOL1        -0.3740
      17    C6      18.406269   13.360731   19.163060 C.3        1 MOL1         0.0138
      18    H8      19.414294   13.515487   18.755855 H          1 MOL1         0.0794
      19    H9      17.692775   13.559229   18.352098 H          1 MOL1         0.0794
      20    O5      18.264743   12.016485   19.631304 O.3        1 MOL1        -0.5486
      21    H10     17.357643   11.948612   20.004361 H          1 MOL1         0.3769
      22    C7      14.891064   20.237105   20.795923 C.3        1 MOL1         0.2972
      23    H11     14.219778   21.059635   20.516643 H          1 MOL1         0.0751
      24    O6      16.158979   20.721812   21.276986 O.3        1 MOL1        -0.3740
      25    C8      14.260750   19.360504   21.908266 C.3        1 MOL1         0.1003
      26    H12     13.314858   18.965873   21.515022 H          1 MOL1         0.0783
      27    O7      13.991570   20.133429   23.089013 O.3        1 MOL1        -0.5519
      28    H13     14.810036   20.650423   23.300722 H          1 MOL1         0.3769
      29    C9      15.173763   18.156169   22.249822 C.3        1 MOL1         0.1053
      30    H14     16.085702   18.544414   22.724071 H          1 MOL1         0.0783
      31    O8      14.483185   17.294514   23.160496 O.3        1 MOL1        -0.5519
      32    H15     14.042122   17.901610   23.797545 H          1 MOL1         0.3769
      33    C10     15.589597   17.379639   20.970227 C.3        1 MOL1         0.1018
      34    H16     14.733523   16.811819   20.581762 H          1 MOL1         0.0783
      35    C11     16.101829   18.329651   19.856991 C.3        1 MOL1         0.1043
      36    H17     17.068442   18.745600   20.163348 H          1 MOL1         0.0783
      37    O9      15.138603   19.390903   19.653670 O.3        1 MOL1        -0.3740
      38    C12     16.292548   17.605833   18.508068 C.3        1 MOL1         0.0138
      39    H18     15.315247   17.277501   18.129813 H          1 MOL1         0.0794
      40    H19     16.909027   16.710756   18.659262 H          1 MOL1         0.0794
      41    O10     16.928521   18.478445   17.572234 O.3        1 MOL1        -0.5486
      42    H20     16.372744   19.286441   17.530824 H          1 MOL1         0.3769
      43    C13     18.370656   24.164276   21.771050 C.3        1 MOL1         0.2972
      44    H21     18.759280   25.182708   21.898778 H          1 MOL1         0.0751
      45    O11     19.427981   23.205573   21.565347 O.3        1 MOL1        -0.3740
      46    C14     17.565202   23.740337   23.023765 C.3        1 MOL1         0.1003
      47    H22     16.708871   24.421349   23.113541 H          1 MOL1         0.0783
      48    O12     18.368640   23.832928   24.210801 O.3        1 MOL1        -0.5519
      49    H23     19.316010   23.825096   23.925009 H          1 MOL1         0.3769
      50    C15     17.019433   22.304781   22.853093 C.3        1 MOL1         0.1053
      51    H24     17.879126   21.625151   22.850989 H          1 MOL1         0.0783
      52    O13     16.157510   21.986446   23.950009 O.3        1 MOL1        -0.5519
      53    H25     16.637498   22.305336   24.746798 H          1 MOL1         0.3769
      54    C16     16.253243   22.138528   21.516183 C.3        1 MOL1         0.1018
      55    H26     15.263715   22.601448   21.628351 H          1 MOL1         0.0783
      56    C17     17.000599   22.765329   20.303209 C.3        1 MOL1         0.1043
      57    H27     17.852663   22.118990   20.052950 H          1 MOL1         0.0783
      58    O14     17.479131   24.093149   20.638784 O.3        1 MOL1        -0.3740
      59    C18     16.125667   22.889698   19.036083 C.3        1 MOL1         0.0138
      60    H28     15.849765   21.885327   18.689523 H          1 MOL1         0.0794
      61    H29     16.721528   23.355825   18.239977 H          1 MOL1         0.0794
      62    O15     14.950167   23.662920   19.293986 O.3        1 MOL1        -0.5486
      63    H30     15.261074   24.536246   19.621143 H          1 MOL1         0.3769
      64    C19     23.493259   22.775513   20.959762 C.3        1 MOL1         0.2972
      65    H31     24.555179   22.893408   20.708200 H          1 MOL1         0.0751
      66    O16     23.160771   21.393178   21.208063 O.3        1 MOL1        -0.3740
      67    C20     23.110177   23.638205   22.192339 C.3        1 MOL1         0.1003
      68    H32     23.281618   24.686921   21.916786 H          1 MOL1         0.0783
      69    O17     23.910649   23.327552   23.342340 O.3        1 MOL1        -0.5519
      70    H33     23.719458   22.385614   23.581664 H          1 MOL1         0.3769
      71    C21     21.606802   23.471763   22.515824 C.3        1 MOL1         0.1053
      72    H34     21.439524   22.433661   22.835820 H          1 MOL1         0.0783
      73    O18     21.240263   24.367496   23.569642 O.3        1 MOL1        -0.5519
      74    H35     21.972165   24.307583   24.224025 H          1 MOL1         0.3769
      75    C22     20.730120   23.740629   21.266286 C.3        1 MOL1         0.1018
      76    H36     20.698710   24.820261   21.067666 H          1 MOL1         0.0783
      77    C23     21.247670   23.013743   19.995394 C.3        1 MOL1         0.1043
      78    H37     21.031586   21.944357   20.090665 H          1 MOL1         0.0783
      79    O19     22.675402   23.233394   19.862685 O.3        1 MOL1        -0.3740
      80    C24     20.560949   23.530927   18.711125 C.3        1 MOL1         0.0138
      81    H38     20.957822   24.525349   18.467040 H          1 MOL1         0.0794
      82    H39     19.485271   23.640797   18.898616 H          1 MOL1         0.0794
      83    O20     20.764563   22.623985   17.622516 O.3        1 MOL1        -0.5486
      84    H40     20.370775   23.026707   16.820060 H          1 MOL1         0.3769
      85    C25     24.818488   17.691194   22.067282 C.3        1 MOL1         0.2972
      86    H41     25.468538   16.855532   22.356906 H          1 MOL1         0.0751
      87    O21     23.612605   17.228136   21.426680 O.3        1 MOL1        -0.3740
      88    C26     24.443750   18.537069   23.312797 C.3        1 MOL1         0.1003
      89    H42     25.381555   18.913602   23.741673 H          1 MOL1         0.0783
      90    O22     23.753512   17.755339   24.301193 O.3        1 MOL1        -0.5519
      91    H43     23.889024   16.804517   24.069917 H          1 MOL1         0.3769
      92    C27     23.574304   19.750038   22.914614 C.3        1 MOL1         0.1053
      93    H44     22.608286   19.361165   22.577953 H          1 MOL1         0.0783
      94    O23     23.381065   20.581526   24.062197 O.3        1 MOL1        -0.5519
      95    H45     23.161793   19.952560   24.786355 H          1 MOL1         0.3769
      96    C28     24.204451   20.561112   21.753487 C.3        1 MOL1         0.1018
      97    H46     25.037792   21.155348   22.151285 H          1 MOL1         0.0783
      98    C29     24.710185   19.649062   20.600495 C.3        1 MOL1         0.1043
      99    H47     23.836346   19.244703   20.072875 H          1 MOL1         0.0783
     100    O24     25.502144   18.559993   21.138636 O.3        1 MOL1        -0.3740
     101    C30     25.575081   20.394772   19.560101 C.3        1 MOL1         0.0138
     102    H48     24.956109   21.147766   19.054096 H          1 MOL1         0.0794
     103    H49     25.905491   19.678091   18.796346 H          1 MOL1         0.0794
     104    O25     26.704538   21.018667   20.177626 O.3        1 MOL1        -0.5486
     105    H50     27.202824   20.301962   20.629835 H          1 MOL1         0.3769
     106    C31     21.436731   13.785651   20.817575 C.3        1 MOL1         0.2972
     107    H51     21.033261   12.799034   20.555047 H          1 MOL1         0.0751
     108    O26     20.389236   14.730129   21.118956 O.3        1 MOL1        -0.3740
     109    C32     22.400276   13.697456   22.027649 C.3        1 MOL1         0.1003
     110    H52     23.250526   13.075513   21.718547 H          1 MOL1         0.0783
     111    O27     21.774387   13.090236   23.167570 O.3        1 MOL1        -0.5519
     112    H53     20.976356   13.633565   23.390463 H          1 MOL1         0.3769
     113    C33     22.944092   15.101965   22.385788 C.3        1 MOL1         0.1053
     114    H54     22.105668   15.707172   22.758797 H          1 MOL1         0.0783
     115    O28     23.936558   14.965935   23.408771 O.3        1 MOL1        -0.5519
     116    H55     23.576968   14.284579   24.021657 H          1 MOL1         0.3769
     117    C34     23.541568   15.817118   21.140665 C.3        1 MOL1         0.1018
     118    H56     24.534456   15.402338   20.920696 H          1 MOL1         0.0783
     119    C35     22.659250   15.680686   19.868897 C.3        1 MOL1         0.1043
     120    H57     21.797228   16.353895   19.959271 H          1 MOL1         0.0783
     121    O29     22.207201   14.312461   19.718314 O.3        1 MOL1        -0.3740
     122    C36     23.440881   16.055921   18.591731 C.3        1 MOL1         0.0138
     123    H58     24.249404   15.329391   18.435232 H          1 MOL1         0.0794
     124    H59     23.902449   17.043226   18.726409 H          1 MOL1         0.0794
     125    O30     22.562886   16.078718   17.464667 O.3        1 MOL1        -0.5486
     126    H60     22.102769   15.211045   17.459334 H          1 MOL1         0.3769
     127    C1      18.624314   18.937950   24.516597 C.3        1 MOL1        -0.2427
     128    H1      17.882787   19.735359   24.383926 H          1 MOL1         0.0958
     129    H2      18.109974   17.974807   24.413888 H          1 MOL1         0.0958
     130    H3      19.012057   19.004156   25.541054 H          1 MOL1         0.0958
     131    C2      19.770408   19.062850   23.492143 C.3        1 MOL1        -0.1412
     132    H4      20.500904   18.259183   23.663915 H          1 MOL1         0.0947
     133    H5      20.299867   20.013228   23.649618 H          1 MOL1         0.0947
     134    C3      19.247159   18.992720   22.041963 C.3        1 MOL1        -0.1437
     135    H6      18.690484   18.062463   21.891934 H          1 MOL1         0.0947
     136    H7      18.541852   19.810540   21.863584 H          1 MOL1         0.0947
     137    C4      20.390408   19.077814   21.015213 C.3        1 MOL1        -0.1437
     138    H8      21.092703   18.250670   21.180720 H          1 MOL1         0.0947
     139    H9      20.943940   20.009411   21.176194 H          1 MOL1         0.0947
     140    C5      19.874073   19.034026   19.563393 C.3        1 MOL1        -0.1437
     141    H10     19.351746   18.083311   19.387761 H          1 MOL1         0.0947
     142    H11     19.141959   19.837711   19.403271 H          1 MOL1         0.0947
     143    C6      21.027537   19.185703   18.550721 C.3        1 MOL1        -0.1437
     144    H12     21.780619   18.410132   18.731915 H          1 MOL1         0.0947
     145    H13     21.529091   20.151919   18.697899 H          1 MOL1         0.0947
     146    C7      20.525036   19.082466   17.096935 C.3        1 MOL1        -0.1477
     147    H14     20.021888   18.117573   16.947499 H          1 MOL1         0.0947
     148    H15     19.781745   19.868355   16.906883 H          1 MOL1         0.0947
     149    C8      21.687615   19.216788   16.100489 C.3        1 MOL1         0.0145
     150    H16     22.420560   18.425942   16.285561 H          1 MOL1         0.0921
     151    H17     22.177417   20.184903   16.237703 H          1 MOL1         0.0921
     152    N1      21.242646   19.114914   14.656606 N.4        1 MOL1        -0.5969
     153    H18     20.798497   18.211524   14.462890 H          1 MOL1         0.3603
     154    H19     22.031313   19.208816   14.007962 H          1 MOL1         0.3603
     155    H20     20.564600   19.845461   14.417325 H          1 MOL1         0.3603
@<TRIPOS>BOND
    1     1     2    1
    2     1     3    1
    3     1     4    1
    4     4     5    1
    5     4     6    1
    6     6     7    1
    7     4     8    1
    8     8     9    1
    9     8    10    1
   10    10    11    1
   11     8    12    1
   12    12    13    1
   13    12    14    1
   14    14    15    1
   15     1    16    1
   16    14    16    1
   17    14    17    1
   18    17    18    1
   19    17    19    1
   20    17    20    1
   21    20    21    1
   22    22    23    1
   23    22    24    1
   24    22    25    1
   25    25    26    1
   26    25    27    1
   27    27    28    1
   28    25    29    1
   29    29    30    1
   30    29    31    1
   31    31    32    1
   32     3    33    1
   33    29    33    1
   34    33    34    1
   35    33    35    1
   36    35    36    1
   37    22    37    1
   38    35    37    1
   39    35    38    1
   40    38    39    1
   41    38    40    1
   42    38    41    1
   43    41    42    1
   44    43    44    1
   45    43    45    1
   46    43    46    1
   47    46    47    1
   48    46    48    1
   49    48    49    1
   50    46    50    1
   51    50    51    1
   52    50    52    1
   53    52    53    1
   54    24    54    1
   55    50    54    1
   56    54    55    1
   57    54    56    1
   58    56    57    1
   59    43    58    1
   60    56    58    1
   61    56    59    1
   62    59    60    1
   63    59    61    1
   64    59    62    1
   65    62    63    1
   66    64    65    1
   67    64    66    1
   68    64    67    1
   69    67    68    1
   70    67    69    1
   71    69    70    1
   72    67    71    1
   73    71    72    1
   74    71    73    1
   75    73    74    1
   76    45    75    1
   77    71    75    1
   78    75    76    1
   79    75    77    1
   80    77    78    1
   81    64    79    1
   82    77    79    1
   83    77    80    1
   84    80    81    1
   85    80    82    1
   86    80    83    1
   87    83    84    1
   88    85    86    1
   89    85    87    1
   90    85    88    1
   91    88    89    1
   92    88    90    1
   93    90    91    1
   94    88    92    1
   95    92    93    1
   96    92    94    1
   97    94    95    1
   98    66    96    1
   99    92    96    1
  100    96    97    1
  101    96    98    1
  102    98    99    1
  103    85   100    1
  104    98   100    1
  105    98   101    1
  106   101   102    1
  107   101   103    1
  108   101   104    1
  109   104   105    1
  110   106   107    1
  111    12   108    1
  112   106   108    1
  113   106   109    1
  114   109   110    1
  115   109   111    1
  116   111   112    1
  117   109   113    1
  118   113   114    1
  119   113   115    1
  120   115   116    1
  121    87   117    1
  122   113   117    1
  123   117   118    1
  124   117   119    1
  125   119   120    1
  126   106   121    1
  127   119   121    1
  128   119   122    1
  129   122   123    1
  130   122   124    1
  131   122   125    1
  132   125   126    1
  133   127   128    1
  134   127   129    1
  135   127   130    1
  136   127   131    1
  137   131   132    1
  138   131   133    1
  139   131   134    1
  140   134   135    1
  141   134   136    1
  142   134   137    1
  143   137   138    1
  144   137   139    1
  145   137   140    1
  146   140   141    1
  147   140   142    1
  148   140   143    1
  149   143   144    1
  150   143   145    1
  151   143   146    1
  152   146   147    1
  153   146   148    1
  154   146   149    1
  155   149   150    1
  156   149   151    1
  157   149   152    1
  158   152   153    1
  159   152   154    1
  160   152   155    1
@<TRIPOS>SUBSTRUCTURE
       1 MOL1            1 RESIDUE      1      MOL     
       2 MOL1          155 RESIDUE      1      MOL     
@<SCITEGIC>MOL_PROPERTY
VM2 Rank
SciTegic.value.IntegerValue
8

@<SCITEGIC>MOL_PROPERTY
Conf_Id
SciTegic.value.IntegerValue
22772

@<SCITEGIC>MOL_PROPERTY
Probability
SciTegic.value.DoubleValue
1.36

@<SCITEGIC>MOL_PROPERTY
Sum Probability
SciTegic.value.DoubleValue
17.02

@<SCITEGIC>MOL_PROPERTY
Delta G
SciTegic.value.DoubleValue
0.784

@<SCITEGIC>MOL_PROPERTY
G
SciTegic.value.DoubleValue
574.857

@<SCITEGIC>MOL_PROPERTY
E
SciTegic.value.DoubleValue
367.842

@<SCITEGIC>MOL_PROPERTY
-TS
SciTegic.value.DoubleValue
207.014

@<SCITEGIC>MOL_PROPERTY
U+W
SciTegic.value.DoubleValue
231.023

@<SCITEGIC>MOL_PROPERTY
U
SciTegic.value.DoubleValue
304.300

@<SCITEGIC>MOL_PROPERTY
W
SciTegic.value.DoubleValue
-73.277

@<SCITEGIC>MOL_PROPERTY
W(PB)
SciTegic.value.DoubleValue
-79.468

@<SCITEGIC>MOL_PROPERTY
W(SA)
SciTegic.value.DoubleValue
6.191

@<SCITEGIC>MOL_PROPERTY
Valence
SciTegic.value.DoubleValue
146.814

@<SCITEGIC>MOL_PROPERTY
Coulomb
SciTegic.value.DoubleValue
186.291

@<SCITEGIC>MOL_PROPERTY
VdW
SciTegic.value.DoubleValue
-28.805

@<SCITEGIC>MOL_PROPERTY
VdW6
SciTegic.value.DoubleValue
-180.780

@<SCITEGIC>MOL_PROPERTY
VdW12
SciTegic.value.DoubleValue
151.974

@<SCITEGIC>MOL_PROPERTY
Bond
SciTegic.value.DoubleValue
4.304

@<SCITEGIC>MOL_PROPERTY
Angle
SciTegic.value.DoubleValue
9.225

@<SCITEGIC>MOL_PROPERTY
Pdih
SciTegic.value.DoubleValue
133.285

@<SCITEGIC>MOL_PROPERTY
Idih
SciTegic.value.DoubleValue
0.000

@<SCITEGIC>MOL_PROPERTY
Tether
SciTegic.value.DoubleValue
0.000

