@<TRIPOS>MOLECULE
CD_guest-s18_vm2_rndm.mol2 : vm2 host+ligand conformer 1
         142         147           2
SMALL
USER_CHARGES
 
@<TRIPOS>ATOM
       1    C1      16.343876   15.280419   20.737440 C.3        1 MOL1         0.2972
       2    H1      15.292723   15.148427   20.450715 H          1 MOL1         0.0751
       3    O1      16.639370   16.662698   21.019909 O.3        1 MOL1        -0.3740
       4    C2      16.694688   14.403692   21.971873 C.3        1 MOL1         0.1003
       5    H2      16.516954   13.359217   21.685816 H          1 MOL1         0.0783
       6    O2      15.848773   14.725519   23.087343 O.3        1 MOL1        -0.5519
       7    H3      16.085899   15.643085   23.372878 H          1 MOL1         0.3769
       8    C3      18.197042   14.542410   22.337341 C.3        1 MOL1         0.1053
       9    H4      18.364228   15.562682   22.705877 H          1 MOL1         0.0783
      10    O3      18.563611   13.590727   23.344737 O.3        1 MOL1        -0.5519
      11    H5      19.524936   13.729365   23.531205 H          1 MOL1         0.3769
      12    C4      19.100365   14.319540   21.098218 C.3        1 MOL1         0.1018
      13    H6      19.109236   13.247723   20.860190 H          1 MOL1         0.0783
      14    C5      18.618815   15.105301   19.850080 C.3        1 MOL1         0.1043
      15    H7      18.809563   16.174407   20.012210 H          1 MOL1         0.0783
      16    O4      17.201576   14.873860   19.651138 O.3        1 MOL1        -0.3740
      17    C6      19.341557   14.685853   18.550708 C.3        1 MOL1         0.0138
      18    H8      20.416151   14.880323   18.656522 H          1 MOL1         0.0794
      19    H9      18.975203   15.312515   17.726724 H          1 MOL1         0.0794
      20    O5      19.116073   13.303192   18.259360 O.3        1 MOL1        -0.5486
      21    H10     18.140290   13.183988   18.247795 H          1 MOL1         0.3769
      22    C7      14.877884   20.328349   21.725851 C.3        1 MOL1         0.2972
      23    H11     14.222733   21.176200   21.962445 H          1 MOL1         0.0751
      24    O6      16.109958   20.759729   21.109748 O.3        1 MOL1        -0.3740
      25    C8      15.209853   19.524356   23.009278 C.3        1 MOL1         0.1003
      26    H12     14.265557   19.117250   23.392895 H          1 MOL1         0.0783
      27    O7      15.783379   20.382942   24.009385 O.3        1 MOL1        -0.5519
      28    H13     16.669011   20.004373   24.259450 H          1 MOL1         0.3769
      29    C9      16.135780   18.329267   22.667527 C.3        1 MOL1         0.1053
      30    H14     17.097907   18.734850   22.333414 H          1 MOL1         0.0783
      31    O8      16.338463   17.508765   23.824614 O.3        1 MOL1        -0.5519
      32    H15     17.004927   18.001033   24.372221 H          1 MOL1         0.3769
      33    C10     15.553581   17.471411   21.515210 C.3        1 MOL1         0.1018
      34    H16     14.735025   16.858935   21.915638 H          1 MOL1         0.0783
      35    C11     15.037826   18.330177   20.324604 C.3        1 MOL1         0.1043
      36    H17     15.908718   18.731355   19.789220 H          1 MOL1         0.0783
      37    O9      14.220750   19.423636   20.813018 O.3        1 MOL1        -0.3740
      38    C12     14.194127   17.534083   19.303971 C.3        1 MOL1         0.0138
      39    H18     14.832160   16.783125   18.819736 H          1 MOL1         0.0794
      40    H19     13.849134   18.221449   18.519912 H          1 MOL1         0.0794
      41    O10     13.077317   16.900780   19.934917 O.3        1 MOL1        -0.5486
      42    H20     12.561426   17.618057   20.366104 H          1 MOL1         0.3769
      43    C13     18.444001   24.099442   20.515765 C.3        1 MOL1         0.2972
      44    H21     18.895088   25.063138   20.246697 H          1 MOL1         0.0751
      45    O11     19.454056   23.126749   20.861200 O.3        1 MOL1        -0.3740
      46    C14     17.424378   24.264870   21.675098 C.3        1 MOL1         0.1003
      47    H22     16.618723   24.910075   21.302109 H          1 MOL1         0.0783
      48    O12     18.026578   24.901014   22.812636 O.3        1 MOL1        -0.5519
      49    H23     18.609660   24.222383   23.235527 H          1 MOL1         0.3769
      50    C15     16.794107   22.896300   22.048736 C.3        1 MOL1         0.1053
      51    H24     17.580835   22.268116   22.489285 H          1 MOL1         0.0783
      52    O13     15.738264   23.089373   22.997677 O.3        1 MOL1        -0.5519
      53    H25     15.663922   22.238275   23.494722 H          1 MOL1         0.3769
      54    C16     16.237009   22.160997   20.795435 C.3        1 MOL1         0.1018
      55    H26     15.269028   22.595860   20.513439 H          1 MOL1         0.0783
      56    C17     17.191886   22.228124   19.571449 C.3        1 MOL1         0.1043
      57    H27     18.023476   21.533649   19.747069 H          1 MOL1         0.0783
      58    O14     17.706550   23.571949   19.394948 O.3        1 MOL1        -0.3740
      59    C18     16.505892   21.809175   18.252400 C.3        1 MOL1         0.0138
      60    H28     16.121060   20.786102   18.357832 H          1 MOL1         0.0794
      61    H29     17.258284   21.797775   17.452579 H          1 MOL1         0.0794
      62    O15     15.441432   22.705258   17.918901 O.3        1 MOL1        -0.5486
      63    H30     15.833614   23.606946   17.927803 H          1 MOL1         0.3769
      64    C19     23.332707   22.669733   22.245941 C.3        1 MOL1         0.2972
      65    H31     24.336798   22.803887   22.667194 H          1 MOL1         0.0751
      66    O16     23.195721   21.388077   21.596565 O.3        1 MOL1        -0.3740
      67    C20     22.259788   22.788042   23.359204 C.3        1 MOL1         0.1003
      68    H32     22.338004   23.799060   23.779109 H          1 MOL1         0.0783
      69    O17     22.510619   21.834426   24.404953 O.3        1 MOL1        -0.5519
      70    H33     21.667010   21.329565   24.557683 H          1 MOL1         0.3769
      71    C21     20.835594   22.636694   22.765235 C.3        1 MOL1         0.1053
      72    H34     20.721132   21.611106   22.392930 H          1 MOL1         0.0783
      73    O18     19.856973   22.894990   23.779571 O.3        1 MOL1        -0.5519
      74    H35     19.795009   22.053795   24.306785 H          1 MOL1         0.3769
      75    C22     20.618556   23.598355   21.568556 C.3        1 MOL1         0.1018
      76    H36     20.482847   24.617625   21.952690 H          1 MOL1         0.0783
      77    C23     21.802602   23.571520   20.561921 C.3        1 MOL1         0.1043
      78    H37     21.775273   22.614941   20.024119 H          1 MOL1         0.0783
      79    O19     23.062243   23.696936   21.268060 O.3        1 MOL1        -0.3740
      80    C24     21.737965   24.699541   19.508207 C.3        1 MOL1         0.0138
      81    H38     20.843907   24.557365   18.886729 H          1 MOL1         0.0794
      82    H39     22.611154   24.615503   18.847483 H          1 MOL1         0.0794
      83    O20     21.707447   25.988074   20.128927 O.3        1 MOL1        -0.5486
      84    H40     22.508948   26.039143   20.695995 H          1 MOL1         0.3769
      85    C25     25.173713   17.725056   21.422010 C.3        1 MOL1         0.2972
      86    H41     25.902127   16.916865   21.280149 H          1 MOL1         0.0751
      87    O21     23.843331   17.218973   21.645003 O.3        1 MOL1        -0.3740
      88    C26     25.562739   18.597886   22.640104 C.3        1 MOL1         0.1003
      89    H42     26.554907   19.021282   22.436555 H          1 MOL1         0.0783
      90    O22     25.619941   17.817315   23.842662 O.3        1 MOL1        -0.5519
      91    H43     25.726060   18.479833   24.561922 H          1 MOL1         0.3769
      92    C27     24.571108   19.772599   22.822975 C.3        1 MOL1         0.1053
      93    H44     23.600267   19.352354   23.119355 H          1 MOL1         0.0783
      94    O23     25.064941   20.628090   23.860288 O.3        1 MOL1        -0.5519
      95    H45     24.274817   21.115987   24.202079 H          1 MOL1         0.3769
      96    C28     24.375621   20.564085   21.496406 C.3        1 MOL1         0.1018
      97    H46     25.266766   21.173029   21.294624 H          1 MOL1         0.0783
      98    C29     24.132584   19.622933   20.285968 C.3        1 MOL1         0.1043
      99    H47     23.132318   19.178386   20.374619 H          1 MOL1         0.0783
     100    O24     25.146839   18.588503   20.266411 O.3        1 MOL1        -0.3740
     101    C30     24.210646   20.376903   18.942077 C.3        1 MOL1         0.0138
     102    H48     25.208468   20.822477   18.833694 H          1 MOL1         0.0794
     103    H49     23.477435   21.194255   18.943337 H          1 MOL1         0.0794
     104    O25     23.942325   19.481639   17.861022 O.3        1 MOL1        -0.5486
     105    H50     24.560514   18.727097   17.977623 H          1 MOL1         0.3769
     106    C31     21.473724   13.832326   21.428018 C.3        1 MOL1         0.2972
     107    H51     21.086891   12.809295   21.341677 H          1 MOL1         0.0751
     108    O26     20.409590   14.805962   21.453342 O.3        1 MOL1        -0.3740
     109    C32     22.304323   13.969546   22.728661 C.3        1 MOL1         0.1003
     110    H52     23.130504   13.249360   22.666623 H          1 MOL1         0.0783
     111    O27     21.509798   13.676907   23.886664 O.3        1 MOL1        -0.5519
     112    H53     22.069660   13.952304   24.647037 H          1 MOL1         0.3769
     113    C33     22.916177   15.383566   22.852055 C.3        1 MOL1         0.1053
     114    H54     22.096436   16.094526   23.015934 H          1 MOL1         0.0783
     115    O28     23.821913   15.419476   23.961847 O.3        1 MOL1        -0.5519
     116    H55     24.293932   16.287889   23.914228 H          1 MOL1         0.3769
     117    C34     23.665215   15.793952   21.560416 C.3        1 MOL1         0.1018
     118    H56     24.622760   15.257889   21.525470 H          1 MOL1         0.0783
     119    C35     22.848669   15.495276   20.272737 C.3        1 MOL1         0.1043
     120    H57     22.011048   16.203237   20.217693 H          1 MOL1         0.0783
     121    O29     22.342148   14.138269   20.316669 O.3        1 MOL1        -0.3740
     122    C36     23.674234   15.642145   18.975811 C.3        1 MOL1         0.0138
     123    H58     24.001860   16.684275   18.875687 H          1 MOL1         0.0794
     124    H59     23.025785   15.420231   18.117790 H          1 MOL1         0.0794
     125    O30     24.805391   14.766247   18.982200 O.3        1 MOL1        -0.5486
     126    H60     24.448525   13.860930   19.121911 H          1 MOL1         0.3769
     127    C1      19.475013   19.391819   24.381285 C.2        1 MOL1         0.6075
     128    O1      20.187280   20.310993   24.739084 O.co2      1 MOL1        -0.6830
     129    O2      18.290062   19.318711   24.646853 O.co2      1 MOL1        -0.6830
     130    C2      20.101236   18.256969   23.573484 C.3        1 MOL1        -0.2050
     131    H1      19.352948   17.468686   23.439722 H          1 MOL1         0.0710
     132    H2      20.901563   17.832039   24.189666 H          1 MOL1         0.0710
     133    C3      20.681235   18.674323   22.196337 C.3        1 MOL1        -0.1947
     134    H3      21.419267   19.471173   22.341423 H          1 MOL1         0.0712
     135    H4      21.221148   17.822399   21.769204 H          1 MOL1         0.0712
     136    C4      19.607164   19.129431   21.186948 C.3        1 MOL1        -0.1921
     137    H5      19.050305   19.986771   21.589932 H          1 MOL1         0.0712
     138    H6      18.885275   18.318290   21.031849 H          1 MOL1         0.0712
     139    C5      20.235543   19.512067   19.832467 C.3        1 MOL1        -0.2936
     140    H7      19.459644   19.789632   19.108793 H          1 MOL1         0.0724
     141    H8      20.804914   18.673161   19.412005 H          1 MOL1         0.0724
     142    H9      20.915568   20.365309   19.946815 H          1 MOL1         0.0724
@<TRIPOS>BOND
    1     1     2    1
    2     1     3    1
    3     1     4    1
    4     4     5    1
    5     4     6    1
    6     6     7    1
    7     4     8    1
    8     8     9    1
    9     8    10    1
   10    10    11    1
   11     8    12    1
   12    12    13    1
   13    12    14    1
   14    14    15    1
   15     1    16    1
   16    14    16    1
   17    14    17    1
   18    17    18    1
   19    17    19    1
   20    17    20    1
   21    20    21    1
   22    22    23    1
   23    22    24    1
   24    22    25    1
   25    25    26    1
   26    25    27    1
   27    27    28    1
   28    25    29    1
   29    29    30    1
   30    29    31    1
   31    31    32    1
   32     3    33    1
   33    29    33    1
   34    33    34    1
   35    33    35    1
   36    35    36    1
   37    22    37    1
   38    35    37    1
   39    35    38    1
   40    38    39    1
   41    38    40    1
   42    38    41    1
   43    41    42    1
   44    43    44    1
   45    43    45    1
   46    43    46    1
   47    46    47    1
   48    46    48    1
   49    48    49    1
   50    46    50    1
   51    50    51    1
   52    50    52    1
   53    52    53    1
   54    24    54    1
   55    50    54    1
   56    54    55    1
   57    54    56    1
   58    56    57    1
   59    43    58    1
   60    56    58    1
   61    56    59    1
   62    59    60    1
   63    59    61    1
   64    59    62    1
   65    62    63    1
   66    64    65    1
   67    64    66    1
   68    64    67    1
   69    67    68    1
   70    67    69    1
   71    69    70    1
   72    67    71    1
   73    71    72    1
   74    71    73    1
   75    73    74    1
   76    45    75    1
   77    71    75    1
   78    75    76    1
   79    75    77    1
   80    77    78    1
   81    64    79    1
   82    77    79    1
   83    77    80    1
   84    80    81    1
   85    80    82    1
   86    80    83    1
   87    83    84    1
   88    85    86    1
   89    85    87    1
   90    85    88    1
   91    88    89    1
   92    88    90    1
   93    90    91    1
   94    88    92    1
   95    92    93    1
   96    92    94    1
   97    94    95    1
   98    66    96    1
   99    92    96    1
  100    96    97    1
  101    96    98    1
  102    98    99    1
  103    85   100    1
  104    98   100    1
  105    98   101    1
  106   101   102    1
  107   101   103    1
  108   101   104    1
  109   104   105    1
  110   106   107    1
  111    12   108    1
  112   106   108    1
  113   106   109    1
  114   109   110    1
  115   109   111    1
  116   111   112    1
  117   109   113    1
  118   113   114    1
  119   113   115    1
  120   115   116    1
  121    87   117    1
  122   113   117    1
  123   117   118    1
  124   117   119    1
  125   119   120    1
  126   106   121    1
  127   119   121    1
  128   119   122    1
  129   122   123    1
  130   122   124    1
  131   122   125    1
  132   125   126    1
  133   127   128    1
  134   127   129    2
  135   127   130    1
  136   130   131    1
  137   130   132    1
  138   130   133    1
  139   133   134    1
  140   133   135    1
  141   133   136    1
  142   136   137    1
  143   136   138    1
  144   136   139    1
  145   139   140    1
  146   139   141    1
  147   139   142    1
@<TRIPOS>SUBSTRUCTURE
       1 MOL1            1 RESIDUE      1      MOL     
       2 MOL1          142 RESIDUE      1      MOL     
@<SCITEGIC>MOL_PROPERTY
VM2 Rank
SciTegic.value.IntegerValue
1

@<SCITEGIC>MOL_PROPERTY
Conf_Id
SciTegic.value.IntegerValue
4483

@<SCITEGIC>MOL_PROPERTY
Probability
SciTegic.value.DoubleValue
1.29

@<SCITEGIC>MOL_PROPERTY
Sum Probability
SciTegic.value.DoubleValue
1.29

@<SCITEGIC>MOL_PROPERTY
Delta G
SciTegic.value.DoubleValue
0.000

@<SCITEGIC>MOL_PROPERTY
G
SciTegic.value.DoubleValue
481.869

@<SCITEGIC>MOL_PROPERTY
E
SciTegic.value.DoubleValue
296.405

@<SCITEGIC>MOL_PROPERTY
-TS
SciTegic.value.DoubleValue
185.464

@<SCITEGIC>MOL_PROPERTY
U+W
SciTegic.value.DoubleValue
171.211

@<SCITEGIC>MOL_PROPERTY
U
SciTegic.value.DoubleValue
234.021

@<SCITEGIC>MOL_PROPERTY
W
SciTegic.value.DoubleValue
-62.810

@<SCITEGIC>MOL_PROPERTY
W(PB)
SciTegic.value.DoubleValue
-68.826

@<SCITEGIC>MOL_PROPERTY
W(SA)
SciTegic.value.DoubleValue
6.015

@<SCITEGIC>MOL_PROPERTY
Valence
SciTegic.value.DoubleValue
150.556

@<SCITEGIC>MOL_PROPERTY
Coulomb
SciTegic.value.DoubleValue
104.129

@<SCITEGIC>MOL_PROPERTY
VdW
SciTegic.value.DoubleValue
-20.665

@<SCITEGIC>MOL_PROPERTY
VdW6
SciTegic.value.DoubleValue
-181.085

@<SCITEGIC>MOL_PROPERTY
VdW12
SciTegic.value.DoubleValue
160.420

@<SCITEGIC>MOL_PROPERTY
Bond
SciTegic.value.DoubleValue
5.079

@<SCITEGIC>MOL_PROPERTY
Angle
SciTegic.value.DoubleValue
12.122

@<SCITEGIC>MOL_PROPERTY
Pdih
SciTegic.value.DoubleValue
133.355

@<SCITEGIC>MOL_PROPERTY
Idih
SciTegic.value.DoubleValue
0.001

@<SCITEGIC>MOL_PROPERTY
Tether
SciTegic.value.DoubleValue
0.000

@<TRIPOS>MOLECULE
CD_guest-s18_vm2_rndm.mol2 : vm2 host+ligand conformer 2
         142         147           2
SMALL
USER_CHARGES
 
@<TRIPOS>ATOM
       1    C1      16.314258   15.290197   20.765816 C.3        1 MOL1         0.2972
       2    H1      15.260496   15.157402   20.489206 H          1 MOL1         0.0751
       3    O1      16.609853   16.671549   21.052401 O.3        1 MOL1        -0.3740
       4    C2      16.679663   14.408256   21.992207 C.3        1 MOL1         0.1003
       5    H2      16.501741   13.364744   21.702772 H          1 MOL1         0.0783
       6    O2      15.844118   14.722420   23.117616 O.3        1 MOL1        -0.5519
       7    H3      16.081429   15.639387   23.404928 H          1 MOL1         0.3769
       8    C3      18.185325   14.549218   22.343036 C.3        1 MOL1         0.1053
       9    H4      18.353838   15.568255   22.714462 H          1 MOL1         0.0783
      10    O3      18.564722   13.593823   23.342161 O.3        1 MOL1        -0.5519
      11    H5      19.528355   13.731792   23.516786 H          1 MOL1         0.3769
      12    C4      19.076374   14.334187   21.093712 C.3        1 MOL1         0.1018
      13    H6      19.084668   13.263492   20.850686 H          1 MOL1         0.0783
      14    C5      18.580367   15.124908   19.854295 C.3        1 MOL1         0.1043
      15    H7      18.770179   16.193716   20.019547 H          1 MOL1         0.0783
      16    O4      17.161710   14.890859   19.668851 O.3        1 MOL1        -0.3740
      17    C6      19.290444   14.713615   18.545382 C.3        1 MOL1         0.0138
      18    H8      20.365418   14.911417   18.640379 H          1 MOL1         0.0794
      19    H9      18.913068   15.342664   17.728204 H          1 MOL1         0.0794
      20    O5      19.066520   13.331464   18.250354 O.3        1 MOL1        -0.5486
      21    H10     18.091071   13.209105   18.248055 H          1 MOL1         0.3769
      22    C7      14.847415   20.330556   21.793267 C.3        1 MOL1         0.2972
      23    H11     14.192900   21.175832   22.040589 H          1 MOL1         0.0751
      24    O6      16.072666   20.767083   21.168199 O.3        1 MOL1        -0.3740
      25    C8      15.192477   19.519800   23.068943 C.3        1 MOL1         0.1003
      26    H12     14.252589   19.108383   23.458741 H          1 MOL1         0.0783
      27    O7      15.773155   20.374263   24.068435 O.3        1 MOL1        -0.5519
      28    H13     16.661129   19.995437   24.309713 H          1 MOL1         0.3769
      29    C9      16.118154   18.328984   22.712313 C.3        1 MOL1         0.1053
      30    H14     17.076381   18.738521   22.371715 H          1 MOL1         0.0783
      31    O8      16.332974   17.502738   23.863096 O.3        1 MOL1        -0.5519
      32    H15     17.003554   17.993255   24.407258 H          1 MOL1         0.3769
      33    C10     15.527260   17.476393   21.560608 C.3        1 MOL1         0.1018
      34    H16     14.712733   16.860869   21.964591 H          1 MOL1         0.0783
      35    C11     15.001105   18.340785   20.378535 C.3        1 MOL1         0.1043
      36    H17     15.867696   18.745518   19.838519 H          1 MOL1         0.0783
      37    O9      14.185715   19.431034   20.878500 O.3        1 MOL1        -0.3740
      38    C12     14.151181   17.548208   19.360318 C.3        1 MOL1         0.0138
      39    H18     14.786549   16.799712   18.868792 H          1 MOL1         0.0794
      40    H19     13.800404   18.238203   18.581220 H          1 MOL1         0.0794
      41    O10     13.039150   16.911543   19.996280 O.3        1 MOL1        -0.5486
      42    H20     12.526168   17.626372   20.434922 H          1 MOL1         0.3769
      43    C13     18.393072   24.114963   20.567192 C.3        1 MOL1         0.2972
      44    H21     18.837202   25.081218   20.295745 H          1 MOL1         0.0751
      45    O11     19.410604   23.143597   20.894554 O.3        1 MOL1        -0.3740
      46    C14     17.388588   24.271706   21.740522 C.3        1 MOL1         0.1003
      47    H22     16.576829   24.916913   21.381029 H          1 MOL1         0.0783
      48    O12     18.002137   24.903732   22.874122 O.3        1 MOL1        -0.5519
      49    H23     18.591710   24.224476   23.286848 H          1 MOL1         0.3769
      50    C15     16.766361   22.899150   22.113091 C.3        1 MOL1         0.1053
      51    H24     17.558158   22.271080   22.544649 H          1 MOL1         0.0783
      52    O13     15.716295   23.085053   23.069632 O.3        1 MOL1        -0.5519
      53    H25     15.649148   22.232393   23.565149 H          1 MOL1         0.3769
      54    C16     16.201098   22.168854   20.860452 C.3        1 MOL1         0.1018
      55    H26     15.233114   22.607455   20.583830 H          1 MOL1         0.0783
      56    C17     17.144956   22.237898   19.629670 C.3        1 MOL1         0.1043
      57    H27     17.979822   21.542645   19.787257 H          1 MOL1         0.0783
      58    O14     17.638974   23.589650   19.455896 O.3        1 MOL1        -0.3740
      59    C18     16.420264   21.834105   18.328844 C.3        1 MOL1         0.0138
      60    H28     15.618314   22.555459   18.122536 H          1 MOL1         0.0794
      61    H29     15.956682   20.847731   18.463642 H          1 MOL1         0.0794
      62    O15     17.348551   21.792878   17.243575 O.3        1 MOL1        -0.5486
      63    H30     17.850658   22.637413   17.284593 H          1 MOL1         0.3769
      64    C19     23.303364   22.685204   22.242469 C.3        1 MOL1         0.2972
      65    H31     24.310596   22.820590   22.655759 H          1 MOL1         0.0751
      66    O16     23.165089   21.406038   21.588542 O.3        1 MOL1        -0.3740
      67    C20     22.239763   22.795265   23.365531 C.3        1 MOL1         0.1003
      68    H32     22.319674   23.804191   23.790126 H          1 MOL1         0.0783
      69    O17     22.501388   21.836707   24.404136 O.3        1 MOL1        -0.5519
      70    H33     21.658872   21.332626   24.565104 H          1 MOL1         0.3769
      71    C21     20.810603   22.644460   22.783558 C.3        1 MOL1         0.1053
      72    H34     20.694399   21.620630   22.406961 H          1 MOL1         0.0783
      73    O18     19.841487   22.895888   23.808649 O.3        1 MOL1        -0.5519
      74    H35     19.785960   22.052270   24.332727 H          1 MOL1         0.3769
      75    C22     20.581176   23.612157   21.593847 C.3        1 MOL1         0.1018
      76    H36     20.448540   24.629527   21.984007 H          1 MOL1         0.0783
      77    C23     21.755812   23.590611   20.576255 C.3        1 MOL1         0.1043
      78    H37     21.725046   22.635786   20.035448 H          1 MOL1         0.0783
      79    O19     23.021623   23.715883   21.271383 O.3        1 MOL1        -0.3740
      80    C24     21.679392   24.722143   19.527130 C.3        1 MOL1         0.0138
      81    H38     20.779470   24.580826   18.914007 H          1 MOL1         0.0794
      82    H39     22.546179   24.641546   18.857611 H          1 MOL1         0.0794
      83    O20     21.653175   26.008509   20.152546 O.3        1 MOL1        -0.5486
      84    H40     22.459750   26.058436   20.712469 H          1 MOL1         0.3769
      85    C25     25.150142   17.748979   21.383109 C.3        1 MOL1         0.2972
      86    H41     25.878782   16.942521   21.232852 H          1 MOL1         0.0751
      87    O21     23.822012   17.240016   21.612937 O.3        1 MOL1        -0.3740
      88    C26     25.546158   18.616708   22.602486 C.3        1 MOL1         0.1003
      89    H42     26.536192   19.042724   22.394073 H          1 MOL1         0.0783
      90    O22     25.612948   17.830400   23.800839 O.3        1 MOL1        -0.5519
      91    H43     25.722507   18.489601   24.522612 H          1 MOL1         0.3769
      92    C27     24.553856   19.788848   22.797735 C.3        1 MOL1         0.1053
      93    H44     23.586156   19.365484   23.099767 H          1 MOL1         0.0783
      94    O23     25.054088   20.640761   23.834909 O.3        1 MOL1        -0.5519
      95    H45     24.265569   21.125282   24.185113 H          1 MOL1         0.3769
      96    C28     24.346644   20.585899   21.476221 C.3        1 MOL1         0.1018
      97    H46     25.234598   21.198423   21.271237 H          1 MOL1         0.0783
      98    C29     24.098118   19.650066   20.262748 C.3        1 MOL1         0.1043
      99    H47     23.099310   19.202991   20.355266 H          1 MOL1         0.0783
     100    O24     25.114425   18.617883   20.231900 O.3        1 MOL1        -0.3740
     101    C30     24.166517   20.410858   18.922168 C.3        1 MOL1         0.0138
     102    H48     25.161263   20.862841   18.812100 H          1 MOL1         0.0794
     103    H49     23.428453   21.223827   18.930206 H          1 MOL1         0.0794
     104    O25     23.899586   19.519152   17.837834 O.3        1 MOL1        -0.5486
     105    H50     24.521929   18.767233   17.949359 H          1 MOL1         0.3769
     106    C31     21.454829   13.850988   21.390862 C.3        1 MOL1         0.2972
     107    H51     21.069938   12.827707   21.299021 H          1 MOL1         0.0751
     108    O26     20.388236   14.821084   21.438387 O.3        1 MOL1        -0.3740
     109    C32     22.300196   13.977868   22.683084 C.3        1 MOL1         0.1003
     110    H52     23.126951   13.259931   22.604806 H          1 MOL1         0.0783
     111    O27     21.519570   13.672851   23.847350 O.3        1 MOL1        -0.5519
     112    H53     22.087712   13.941909   24.603830 H          1 MOL1         0.3769
     113    C33     22.910845   15.391891   22.812768 C.3        1 MOL1         0.1053
     114    H54     22.091759   16.099635   22.993253 H          1 MOL1         0.0783
     115    O28     23.829704   15.419192   23.911988 O.3        1 MOL1        -0.5519
     116    H55     24.297074   16.290358   23.868823 H          1 MOL1         0.3769
     117    C34     23.643750   15.815824   21.516249 C.3        1 MOL1         0.1018
     118    H56     24.601118   15.280859   21.464028 H          1 MOL1         0.0783
     119    C35     22.811571   15.528977   20.235966 C.3        1 MOL1         0.1043
     120    H57     21.971659   16.235399   20.198949 H          1 MOL1         0.0783
     121    O29     22.309060   14.170297   20.272318 O.3        1 MOL1        -0.3740
     122    C36     23.620178   15.691238   18.930239 C.3        1 MOL1         0.0138
     123    H58     23.944203   16.735085   18.836884 H          1 MOL1         0.0794
     124    H59     22.961286   15.476867   18.078281 H          1 MOL1         0.0794
     125    O30     24.753191   14.817884   18.912983 O.3        1 MOL1        -0.5486
     126    H60     24.400068   13.910398   19.048012 H          1 MOL1         0.3769
     127    C1      19.470356   19.390112   24.406682 C.2        1 MOL1         0.6075
     128    O1      20.181575   20.311475   24.761046 O.co2      1 MOL1        -0.6830
     129    O2      18.287554   19.311804   24.680408 O.co2      1 MOL1        -0.6830
     130    C2      20.095097   18.259910   23.591266 C.3        1 MOL1        -0.2050
     131    H1      19.348894   17.469092   23.460629 H          1 MOL1         0.0710
     132    H2      20.901754   17.836229   24.200041 H          1 MOL1         0.0710
     133    C3      20.662968   18.683963   22.211199 C.3        1 MOL1        -0.1947
     134    H3      21.399176   19.483063   22.353095 H          1 MOL1         0.0712
     135    H4      21.202458   17.835592   21.776729 H          1 MOL1         0.0712
     136    C4      19.579408   19.138720   21.211977 C.3        1 MOL1        -0.1921
     137    H5      19.022796   19.992913   21.621846 H          1 MOL1         0.0712
     138    H6      18.858913   18.325847   21.059530 H          1 MOL1         0.0712
     139    C5      20.195675   19.528302   19.853937 C.3        1 MOL1        -0.2936
     140    H7      19.412870   19.807954   19.137822 H          1 MOL1         0.0724
     141    H8      20.762803   18.692459   19.424625 H          1 MOL1         0.0724
     142    H9      20.874611   20.382654   19.965767 H          1 MOL1         0.0724
@<TRIPOS>BOND
    1     1     2    1
    2     1     3    1
    3     1     4    1
    4     4     5    1
    5     4     6    1
    6     6     7    1
    7     4     8    1
    8     8     9    1
    9     8    10    1
   10    10    11    1
   11     8    12    1
   12    12    13    1
   13    12    14    1
   14    14    15    1
   15     1    16    1
   16    14    16    1
   17    14    17    1
   18    17    18    1
   19    17    19    1
   20    17    20    1
   21    20    21    1
   22    22    23    1
   23    22    24    1
   24    22    25    1
   25    25    26    1
   26    25    27    1
   27    27    28    1
   28    25    29    1
   29    29    30    1
   30    29    31    1
   31    31    32    1
   32     3    33    1
   33    29    33    1
   34    33    34    1
   35    33    35    1
   36    35    36    1
   37    22    37    1
   38    35    37    1
   39    35    38    1
   40    38    39    1
   41    38    40    1
   42    38    41    1
   43    41    42    1
   44    43    44    1
   45    43    45    1
   46    43    46    1
   47    46    47    1
   48    46    48    1
   49    48    49    1
   50    46    50    1
   51    50    51    1
   52    50    52    1
   53    52    53    1
   54    24    54    1
   55    50    54    1
   56    54    55    1
   57    54    56    1
   58    56    57    1
   59    43    58    1
   60    56    58    1
   61    56    59    1
   62    59    60    1
   63    59    61    1
   64    59    62    1
   65    62    63    1
   66    64    65    1
   67    64    66    1
   68    64    67    1
   69    67    68    1
   70    67    69    1
   71    69    70    1
   72    67    71    1
   73    71    72    1
   74    71    73    1
   75    73    74    1
   76    45    75    1
   77    71    75    1
   78    75    76    1
   79    75    77    1
   80    77    78    1
   81    64    79    1
   82    77    79    1
   83    77    80    1
   84    80    81    1
   85    80    82    1
   86    80    83    1
   87    83    84    1
   88    85    86    1
   89    85    87    1
   90    85    88    1
   91    88    89    1
   92    88    90    1
   93    90    91    1
   94    88    92    1
   95    92    93    1
   96    92    94    1
   97    94    95    1
   98    66    96    1
   99    92    96    1
  100    96    97    1
  101    96    98    1
  102    98    99    1
  103    85   100    1
  104    98   100    1
  105    98   101    1
  106   101   102    1
  107   101   103    1
  108   101   104    1
  109   104   105    1
  110   106   107    1
  111    12   108    1
  112   106   108    1
  113   106   109    1
  114   109   110    1
  115   109   111    1
  116   111   112    1
  117   109   113    1
  118   113   114    1
  119   113   115    1
  120   115   116    1
  121    87   117    1
  122   113   117    1
  123   117   118    1
  124   117   119    1
  125   119   120    1
  126   106   121    1
  127   119   121    1
  128   119   122    1
  129   122   123    1
  130   122   124    1
  131   122   125    1
  132   125   126    1
  133   127   128    1
  134   127   129    2
  135   127   130    1
  136   130   131    1
  137   130   132    1
  138   130   133    1
  139   133   134    1
  140   133   135    1
  141   133   136    1
  142   136   137    1
  143   136   138    1
  144   136   139    1
  145   139   140    1
  146   139   141    1
  147   139   142    1
@<TRIPOS>SUBSTRUCTURE
       1 MOL1            1 RESIDUE      1      MOL     
       2 MOL1          142 RESIDUE      1      MOL     
@<SCITEGIC>MOL_PROPERTY
VM2 Rank
SciTegic.value.IntegerValue
2

@<SCITEGIC>MOL_PROPERTY
Conf_Id
SciTegic.value.IntegerValue
9749

@<SCITEGIC>MOL_PROPERTY
Probability
SciTegic.value.DoubleValue
1.28

@<SCITEGIC>MOL_PROPERTY
Sum Probability
SciTegic.value.DoubleValue
2.57

@<SCITEGIC>MOL_PROPERTY
Delta G
SciTegic.value.DoubleValue
0.005

@<SCITEGIC>MOL_PROPERTY
G
SciTegic.value.DoubleValue
481.874

@<SCITEGIC>MOL_PROPERTY
E
SciTegic.value.DoubleValue
296.598

@<SCITEGIC>MOL_PROPERTY
-TS
SciTegic.value.DoubleValue
185.276

@<SCITEGIC>MOL_PROPERTY
U+W
SciTegic.value.DoubleValue
171.404

@<SCITEGIC>MOL_PROPERTY
U
SciTegic.value.DoubleValue
234.551

@<SCITEGIC>MOL_PROPERTY
W
SciTegic.value.DoubleValue
-63.146

@<SCITEGIC>MOL_PROPERTY
W(PB)
SciTegic.value.DoubleValue
-69.163

@<SCITEGIC>MOL_PROPERTY
W(SA)
SciTegic.value.DoubleValue
6.017

@<SCITEGIC>MOL_PROPERTY
Valence
SciTegic.value.DoubleValue
150.777

@<SCITEGIC>MOL_PROPERTY
Coulomb
SciTegic.value.DoubleValue
104.701

@<SCITEGIC>MOL_PROPERTY
VdW
SciTegic.value.DoubleValue
-20.927

@<SCITEGIC>MOL_PROPERTY
VdW6
SciTegic.value.DoubleValue
-180.722

@<SCITEGIC>MOL_PROPERTY
VdW12
SciTegic.value.DoubleValue
159.795

@<SCITEGIC>MOL_PROPERTY
Bond
SciTegic.value.DoubleValue
5.051

@<SCITEGIC>MOL_PROPERTY
Angle
SciTegic.value.DoubleValue
12.050

@<SCITEGIC>MOL_PROPERTY
Pdih
SciTegic.value.DoubleValue
133.674

@<SCITEGIC>MOL_PROPERTY
Idih
SciTegic.value.DoubleValue
0.000

@<SCITEGIC>MOL_PROPERTY
Tether
SciTegic.value.DoubleValue
0.000

@<TRIPOS>MOLECULE
CD_guest-s18_vm2_rndm.mol2 : vm2 host+ligand conformer 3
         142         147           2
SMALL
USER_CHARGES
 
@<TRIPOS>ATOM
       1    C1      16.346612   15.239703   20.685547 C.3        1 MOL1         0.2972
       2    H1      15.297193   15.116691   20.388728 H          1 MOL1         0.0751
       3    O1      16.655854   16.624255   20.944177 O.3        1 MOL1        -0.3740
       4    C2      16.676071   14.369617   21.932054 C.3        1 MOL1         0.1003
       5    H2      16.495686   13.324788   21.648990 H          1 MOL1         0.0783
       6    O2      15.817357   14.699173   23.034747 O.3        1 MOL1        -0.5519
       7    H3      16.079957   15.603975   23.338497 H          1 MOL1         0.3769
       8    C3      18.174698   14.498176   22.317701 C.3        1 MOL1         0.1053
       9    H4      18.345612   15.518154   22.686611 H          1 MOL1         0.0783
      10    O3      18.522324   13.548766   23.334044 O.3        1 MOL1        -0.5519
      11    H5      19.477303   13.696522   23.544259 H          1 MOL1         0.3769
      12    C4      19.093488   14.261024   21.092257 C.3        1 MOL1         0.1018
      13    H6      19.110491   13.186324   20.868097 H          1 MOL1         0.0783
      14    C5      18.628428   15.030479   19.827869 C.3        1 MOL1         0.1043
      15    H7      18.824440   16.099738   19.979461 H          1 MOL1         0.0783
      16    O4      17.211597   14.806739   19.615482 O.3        1 MOL1        -0.3740
      17    C6      19.363489   14.590714   18.542416 C.3        1 MOL1         0.0138
      18    H8      20.438075   14.778912   18.658708 H          1 MOL1         0.0794
      19    H9      19.011172   15.210101   17.706882 H          1 MOL1         0.0794
      20    O5      19.131609   13.206298   18.265028 O.3        1 MOL1        -0.5486
      21    H10     18.155171   13.093510   18.245454 H          1 MOL1         0.3769
      22    C7      14.958417   20.309215   21.751635 C.3        1 MOL1         0.2972
      23    H11     14.310758   21.152040   22.023598 H          1 MOL1         0.0751
      24    O6      16.172603   20.754064   21.110512 O.3        1 MOL1        -0.3740
      25    C8      15.331525   19.484823   23.010816 C.3        1 MOL1         0.1003
      26    H12     14.399291   19.086280   23.431035 H          1 MOL1         0.0783
      27    O7      15.964901   20.322942   23.993202 O.3        1 MOL1        -0.5519
      28    H13     16.821893   19.887833   24.251541 H          1 MOL1         0.3769
      29    C9      16.226236   18.282843   22.618077 C.3        1 MOL1         0.1053
      30    H14     17.179732   18.685014   22.253973 H          1 MOL1         0.0783
      31    O8      16.450293   17.438938   23.754403 O.3        1 MOL1        -0.5519
      32    H15     17.171591   17.887901   24.270815 H          1 MOL1         0.3769
      33    C10     15.597859   17.448197   21.474540 C.3        1 MOL1         0.1018
      34    H16     14.776796   16.847767   21.887496 H          1 MOL1         0.0783
      35    C11     15.070116   18.334125   20.311208 C.3        1 MOL1         0.1043
      36    H17     15.934312   18.738252   19.767622 H          1 MOL1         0.0783
      37    O9      14.273188   19.423975   20.839314 O.3        1 MOL1        -0.3740
      38    C12     14.199794   17.564304   19.293005 C.3        1 MOL1         0.0138
      39    H18     14.820095   16.811245   18.789263 H          1 MOL1         0.0794
      40    H19     13.852431   18.267293   18.524005 H          1 MOL1         0.0794
      41    O10     13.084224   16.937485   19.932617 O.3        1 MOL1        -0.5486
      42    H20     12.589310   17.654885   20.387533 H          1 MOL1         0.3769
      43    C13     18.444968   24.143646   20.533527 C.3        1 MOL1         0.2972
      44    H21     18.881221   25.114487   20.265548 H          1 MOL1         0.0751
      45    O11     19.466688   23.189852   20.897360 O.3        1 MOL1        -0.3740
      46    C14     17.408221   24.290990   21.679081 C.3        1 MOL1         0.1003
      47    H22     16.583368   24.900625   21.288568 H          1 MOL1         0.0783
      48    O12     17.975852   24.968582   22.810068 O.3        1 MOL1        -0.5519
      49    H23     18.588426   24.325355   23.245498 H          1 MOL1         0.3769
      50    C15     16.826017   22.902376   22.059506 C.3        1 MOL1         0.1053
      51    H24     17.636976   22.297521   22.488883 H          1 MOL1         0.0783
      52    O13     15.776978   23.055138   23.022916 O.3        1 MOL1        -0.5519
      53    H25     15.746053   22.201027   23.519916 H          1 MOL1         0.3769
      54    C16     16.280969   22.158754   20.804501 C.3        1 MOL1         0.1018
      55    H26     15.307254   22.579862   20.521426 H          1 MOL1         0.0783
      56    C17     17.238451   22.244248   19.583255 C.3        1 MOL1         0.1043
      57    H27     18.082425   21.566298   19.762995 H          1 MOL1         0.0783
      58    O14     17.729685   23.597288   19.407126 O.3        1 MOL1        -0.3740
      59    C18     16.566056   21.810766   18.261944 C.3        1 MOL1         0.0138
      60    H28     16.201743   20.780158   18.366655 H          1 MOL1         0.0794
      61    H29     17.321502   21.813890   17.464955 H          1 MOL1         0.0794
      62    O15     15.485035   22.685054   17.923877 O.3        1 MOL1        -0.5486
      63    H30     15.859122   23.594352   17.931901 H          1 MOL1         0.3769
      64    C19     23.325690   22.695240   22.266074 C.3        1 MOL1         0.2972
      65    H31     24.338875   22.803734   22.672637 H          1 MOL1         0.0751
      66    O16     23.137109   21.405464   21.645071 O.3        1 MOL1        -0.3740
      67    C20     22.275155   22.865903   23.392710 C.3        1 MOL1         0.1003
      68    H32     22.399826   23.874617   23.806930 H          1 MOL1         0.0783
      69    O17     22.500070   21.900986   24.435444 O.3        1 MOL1        -0.5519
      70    H33     21.621693   21.487198   24.648739 H          1 MOL1         0.3769
      71    C21     20.837470   22.764233   22.823167 C.3        1 MOL1         0.1053
      72    H34     20.676112   21.729568   22.499921 H          1 MOL1         0.0783
      73    O18     19.888774   23.102172   23.841573 O.3        1 MOL1        -0.5519
      74    H35     19.777361   22.275653   24.383589 H          1 MOL1         0.3769
      75    C22     20.630494   23.683622   21.590600 C.3        1 MOL1         0.1018
      76    H36     20.498107   24.717575   21.935244 H          1 MOL1         0.0783
      77    C23     21.808422   23.609345   20.579773 C.3        1 MOL1         0.1043
      78    H37     21.751251   22.644112   20.059265 H          1 MOL1         0.0783
      79    O19     23.075951   23.713020   21.273899 O.3        1 MOL1        -0.3740
      80    C24     21.764438   24.719728   19.506509 C.3        1 MOL1         0.0138
      81    H38     20.859108   24.593250   18.898048 H          1 MOL1         0.0794
      82    H39     22.626958   24.598309   18.837628 H          1 MOL1         0.0794
      83    O20     21.779178   26.019207   20.104502 O.3        1 MOL1        -0.5486
      84    H40     22.586825   26.055108   20.664056 H          1 MOL1         0.3769
      85    C25     25.101533   17.739550   21.366546 C.3        1 MOL1         0.2972
      86    H41     25.828810   16.937129   21.189799 H          1 MOL1         0.0751
      87    O21     23.783036   17.221281   21.635261 O.3        1 MOL1        -0.3740
      88    C26     25.533722   18.606521   22.575325 C.3        1 MOL1         0.1003
      89    H42     26.517437   19.033254   22.340275 H          1 MOL1         0.0783
      90    O22     25.631639   17.819587   23.771099 O.3        1 MOL1        -0.5519
      91    H43     25.763337   18.477931   24.490003 H          1 MOL1         0.3769
      92    C27     24.545136   19.776141   22.797578 C.3        1 MOL1         0.1053
      93    H44     23.587102   19.345046   23.109699 H          1 MOL1         0.0783
      94    O23     25.050611   20.625199   23.834723 O.3        1 MOL1        -0.5519
      95    H45     24.266616   21.119019   24.182375 H          1 MOL1         0.3769
      96    C28     24.306514   20.576998   21.485545 C.3        1 MOL1         0.1018
      97    H46     25.192974   21.182131   21.253545 H          1 MOL1         0.0783
      98    C29     24.012314   19.642419   20.281347 C.3        1 MOL1         0.1043
      99    H47     23.015894   19.197009   20.406685 H          1 MOL1         0.0783
     100    O24     25.025427   18.608764   20.217221 O.3        1 MOL1        -0.3740
     101    C30     24.040670   20.402752   18.939039 C.3        1 MOL1         0.0138
     102    H48     25.035455   20.844661   18.793765 H          1 MOL1         0.0794
     103    H49     23.311992   21.223125   18.972442 H          1 MOL1         0.0794
     104    O25     23.726514   19.513943   17.865093 O.3        1 MOL1        -0.5486
     105    H50     24.341054   18.753115   17.957954 H          1 MOL1         0.3769
     106    C31     21.466948   13.794378   21.468820 C.3        1 MOL1         0.2972
     107    H51     21.090086   12.766201   21.401540 H          1 MOL1         0.0751
     108    O26     20.394928   14.758208   21.458643 O.3        1 MOL1        -0.3740
     109    C32     22.279161   13.971684   22.776196 C.3        1 MOL1         0.1003
     110    H52     23.114172   13.259928   22.741153 H          1 MOL1         0.0783
     111    O27     21.472289   13.695347   23.929882 O.3        1 MOL1        -0.5519
     112    H53     22.017700   13.995024   24.691444 H          1 MOL1         0.3769
     113    C33     22.873872   15.395693   22.875384 C.3        1 MOL1         0.1053
     114    H54     22.045960   16.100509   23.019996 H          1 MOL1         0.0783
     115    O28     23.771121   15.464584   23.990526 O.3        1 MOL1        -0.5519
     116    H55     24.253263   16.325019   23.913316 H          1 MOL1         0.3769
     117    C34     23.628856   15.790953   21.582384 C.3        1 MOL1         0.1018
     118    H56     24.595977   15.271180   21.573314 H          1 MOL1         0.0783
     119    C35     22.836056   15.446757   20.290894 C.3        1 MOL1         0.1043
     120    H57     21.990512   16.142037   20.204806 H          1 MOL1         0.0783
     121    O29     22.346904   14.084321   20.362307 O.3        1 MOL1        -0.3740
     122    C36     23.678504   15.570284   19.002231 C.3        1 MOL1         0.0138
     123    H58     23.987857   16.615008   18.874390 H          1 MOL1         0.0794
     124    H59     23.047479   15.309727   18.142069 H          1 MOL1         0.0794
     125    O30     24.825890   14.717171   19.051824 O.3        1 MOL1        -0.5486
     126    H60     24.484142   13.808961   19.209549 H          1 MOL1         0.3769
     127    C1      19.592641   19.488806   24.405780 C.2        1 MOL1         0.6075
     128    O1      18.448565   19.130067   24.610923 O.co2      1 MOL1        -0.6830
     129    O2      20.052737   20.534698   24.824757 O.co2      1 MOL1        -0.6830
     130    C2      20.522487   18.568340   23.616454 C.3        1 MOL1        -0.2050
     131    H1      20.654875   17.659217   24.213582 H          1 MOL1         0.0710
     132    H2      21.501745   19.050922   23.555327 H          1 MOL1         0.0710
     133    C3      20.045660   18.181952   22.190019 C.3        1 MOL1        -0.1947
     134    H3      20.767211   17.479900   21.757507 H          1 MOL1         0.0712
     135    H4      19.095244   17.641767   22.256363 H          1 MOL1         0.0712
     136    C4      19.904888   19.387917   21.237800 C.3        1 MOL1        -0.1921
     137    H5      20.862778   19.919007   21.177992 H          1 MOL1         0.0712
     138    H6      19.164630   20.096327   21.634766 H          1 MOL1         0.0712
     139    C5      19.486321   18.945326   19.821856 C.3        1 MOL1        -0.2936
     140    H7      19.458217   19.804230   19.140412 H          1 MOL1         0.0724
     141    H8      18.489282   18.487527   19.835902 H          1 MOL1         0.0724
     142    H9      20.197820   18.216362   19.413240 H          1 MOL1         0.0724
@<TRIPOS>BOND
    1     1     2    1
    2     1     3    1
    3     1     4    1
    4     4     5    1
    5     4     6    1
    6     6     7    1
    7     4     8    1
    8     8     9    1
    9     8    10    1
   10    10    11    1
   11     8    12    1
   12    12    13    1
   13    12    14    1
   14    14    15    1
   15     1    16    1
   16    14    16    1
   17    14    17    1
   18    17    18    1
   19    17    19    1
   20    17    20    1
   21    20    21    1
   22    22    23    1
   23    22    24    1
   24    22    25    1
   25    25    26    1
   26    25    27    1
   27    27    28    1
   28    25    29    1
   29    29    30    1
   30    29    31    1
   31    31    32    1
   32     3    33    1
   33    29    33    1
   34    33    34    1
   35    33    35    1
   36    35    36    1
   37    22    37    1
   38    35    37    1
   39    35    38    1
   40    38    39    1
   41    38    40    1
   42    38    41    1
   43    41    42    1
   44    43    44    1
   45    43    45    1
   46    43    46    1
   47    46    47    1
   48    46    48    1
   49    48    49    1
   50    46    50    1
   51    50    51    1
   52    50    52    1
   53    52    53    1
   54    24    54    1
   55    50    54    1
   56    54    55    1
   57    54    56    1
   58    56    57    1
   59    43    58    1
   60    56    58    1
   61    56    59    1
   62    59    60    1
   63    59    61    1
   64    59    62    1
   65    62    63    1
   66    64    65    1
   67    64    66    1
   68    64    67    1
   69    67    68    1
   70    67    69    1
   71    69    70    1
   72    67    71    1
   73    71    72    1
   74    71    73    1
   75    73    74    1
   76    45    75    1
   77    71    75    1
   78    75    76    1
   79    75    77    1
   80    77    78    1
   81    64    79    1
   82    77    79    1
   83    77    80    1
   84    80    81    1
   85    80    82    1
   86    80    83    1
   87    83    84    1
   88    85    86    1
   89    85    87    1
   90    85    88    1
   91    88    89    1
   92    88    90    1
   93    90    91    1
   94    88    92    1
   95    92    93    1
   96    92    94    1
   97    94    95    1
   98    66    96    1
   99    92    96    1
  100    96    97    1
  101    96    98    1
  102    98    99    1
  103    85   100    1
  104    98   100    1
  105    98   101    1
  106   101   102    1
  107   101   103    1
  108   101   104    1
  109   104   105    1
  110   106   107    1
  111    12   108    1
  112   106   108    1
  113   106   109    1
  114   109   110    1
  115   109   111    1
  116   111   112    1
  117   109   113    1
  118   113   114    1
  119   113   115    1
  120   115   116    1
  121    87   117    1
  122   113   117    1
  123   117   118    1
  124   117   119    1
  125   119   120    1
  126   106   121    1
  127   119   121    1
  128   119   122    1
  129   122   123    1
  130   122   124    1
  131   122   125    1
  132   125   126    1
  133   127   128    1
  134   127   129    2
  135   127   130    1
  136   130   131    1
  137   130   132    1
  138   130   133    1
  139   133   134    1
  140   133   135    1
  141   133   136    1
  142   136   137    1
  143   136   138    1
  144   136   139    1
  145   139   140    1
  146   139   141    1
  147   139   142    1
@<TRIPOS>SUBSTRUCTURE
       1 MOL1            1 RESIDUE      1      MOL     
       2 MOL1          142 RESIDUE      1      MOL     
@<SCITEGIC>MOL_PROPERTY
VM2 Rank
SciTegic.value.IntegerValue
3

@<SCITEGIC>MOL_PROPERTY
Conf_Id
SciTegic.value.IntegerValue
24065

@<SCITEGIC>MOL_PROPERTY
Probability
SciTegic.value.DoubleValue
1.23

@<SCITEGIC>MOL_PROPERTY
Sum Probability
SciTegic.value.DoubleValue
3.80

@<SCITEGIC>MOL_PROPERTY
Delta G
SciTegic.value.DoubleValue
0.031

@<SCITEGIC>MOL_PROPERTY
G
SciTegic.value.DoubleValue
481.899

@<SCITEGIC>MOL_PROPERTY
E
SciTegic.value.DoubleValue
297.224

@<SCITEGIC>MOL_PROPERTY
-TS
SciTegic.value.DoubleValue
184.676

@<SCITEGIC>MOL_PROPERTY
U+W
SciTegic.value.DoubleValue
172.029

@<SCITEGIC>MOL_PROPERTY
U
SciTegic.value.DoubleValue
234.915

@<SCITEGIC>MOL_PROPERTY
W
SciTegic.value.DoubleValue
-62.885

@<SCITEGIC>MOL_PROPERTY
W(PB)
SciTegic.value.DoubleValue
-68.896

@<SCITEGIC>MOL_PROPERTY
W(SA)
SciTegic.value.DoubleValue
6.011

@<SCITEGIC>MOL_PROPERTY
Valence
SciTegic.value.DoubleValue
150.787

@<SCITEGIC>MOL_PROPERTY
Coulomb
SciTegic.value.DoubleValue
104.657

@<SCITEGIC>MOL_PROPERTY
VdW
SciTegic.value.DoubleValue
-20.529

@<SCITEGIC>MOL_PROPERTY
VdW6
SciTegic.value.DoubleValue
-180.788

@<SCITEGIC>MOL_PROPERTY
VdW12
SciTegic.value.DoubleValue
160.259

@<SCITEGIC>MOL_PROPERTY
Bond
SciTegic.value.DoubleValue
5.112

@<SCITEGIC>MOL_PROPERTY
Angle
SciTegic.value.DoubleValue
12.378

@<SCITEGIC>MOL_PROPERTY
Pdih
SciTegic.value.DoubleValue
133.294

@<SCITEGIC>MOL_PROPERTY
Idih
SciTegic.value.DoubleValue
0.002

@<SCITEGIC>MOL_PROPERTY
Tether
SciTegic.value.DoubleValue
0.000

@<TRIPOS>MOLECULE
CD_guest-s18_vm2_rndm.mol2 : vm2 host+ligand conformer 4
         142         147           2
SMALL
USER_CHARGES
 
@<TRIPOS>ATOM
       1    C1      16.327938   15.231323   20.686774 C.3        1 MOL1         0.2972
       2    H1      15.279176   15.108951   20.387394 H          1 MOL1         0.0751
       3    O1      16.638106   16.616501   20.941315 O.3        1 MOL1        -0.3740
       4    C2      16.652975   14.363404   21.936200 C.3        1 MOL1         0.1003
       5    H2      16.472157   13.318297   21.654430 H          1 MOL1         0.0783
       6    O2      15.791649   14.695190   23.036135 O.3        1 MOL1        -0.5519
       7    H3      16.060073   15.596862   23.344024 H          1 MOL1         0.3769
       8    C3      18.150674   14.490427   22.326115 C.3        1 MOL1         0.1053
       9    H4      18.322835   15.511791   22.691094 H          1 MOL1         0.0783
      10    O3      18.491477   13.544420   23.347823 O.3        1 MOL1        -0.5519
      11    H5      19.437723   13.710263   23.582759 H          1 MOL1         0.3769
      12    C4      19.071913   14.246684   21.103536 C.3        1 MOL1         0.1018
      13    H6      19.086367   13.171938   20.879246 H          1 MOL1         0.0783
      14    C5      18.612046   15.015187   19.837015 C.3        1 MOL1         0.1043
      15    H7      18.810177   16.084245   19.987503 H          1 MOL1         0.0783
      16    O4      17.195329   14.794315   19.620206 O.3        1 MOL1        -0.3740
      17    C6      19.351754   14.570702   18.555825 C.3        1 MOL1         0.0138
      18    H8      20.427481   14.747150   18.680783 H          1 MOL1         0.0794
      19    H9      19.011661   15.195188   17.719026 H          1 MOL1         0.0794
      20    O5      19.108092   13.189233   18.274158 O.3        1 MOL1        -0.5486
      21    H10     18.130659   13.085446   18.252639 H          1 MOL1         0.3769
      22    C7      14.946442   20.301710   21.769769 C.3        1 MOL1         0.2972
      23    H11     14.299274   21.142492   22.049165 H          1 MOL1         0.0751
      24    O6      16.155679   20.751186   21.122725 O.3        1 MOL1        -0.3740
      25    C8      15.328694   19.473087   23.023400 C.3        1 MOL1         0.1003
      26    H12     14.399419   19.073042   23.448704 H          1 MOL1         0.0783
      27    O7      15.968870   20.307492   24.004465 O.3        1 MOL1        -0.5519
      28    H13     16.833971   19.877784   24.244370 H          1 MOL1         0.3769
      29    C9      16.220862   18.272514   22.620724 C.3        1 MOL1         0.1053
      30    H14     17.171470   18.675489   22.250062 H          1 MOL1         0.0783
      31    O8      16.454614   17.426825   23.753665 O.3        1 MOL1        -0.5519
      32    H15     17.183308   17.873914   24.261287 H          1 MOL1         0.3769
      33    C10     15.584378   17.440963   21.479678 C.3        1 MOL1         0.1018
      34    H16     14.764510   16.841242   21.895912 H          1 MOL1         0.0783
      35    C11     15.051196   18.331072   20.322107 C.3        1 MOL1         0.1043
      36    H17     15.912663   18.737305   19.775800 H          1 MOL1         0.0783
      37    O9      14.256782   19.418990   20.858170 O.3        1 MOL1        -0.3740
      38    C12     14.175966   17.564626   19.305598 C.3        1 MOL1         0.0138
      39    H18     14.793682   16.812679   18.797029 H          1 MOL1         0.0794
      40    H19     13.825515   18.269975   18.540172 H          1 MOL1         0.0794
      41    O10     13.062975   16.936490   19.948401 O.3        1 MOL1        -0.5486
      42    H20     12.570809   17.652738   20.408089 H          1 MOL1         0.3769
      43    C13     18.423188   24.142121   20.544000 C.3        1 MOL1         0.2972
      44    H21     18.859419   25.113400   20.277551 H          1 MOL1         0.0751
      45    O11     19.445217   23.184116   20.895474 O.3        1 MOL1        -0.3740
      46    C14     17.396348   24.285209   21.698758 C.3        1 MOL1         0.1003
      47    H22     16.568778   24.897437   21.318171 H          1 MOL1         0.0783
      48    O12     17.974697   24.957119   22.827708 O.3        1 MOL1        -0.5519
      49    H23     18.595749   24.314184   23.251336 H          1 MOL1         0.3769
      50    C15     16.816154   22.895182   22.077421 C.3        1 MOL1         0.1053
      51    H24     17.630168   22.288009   22.497791 H          1 MOL1         0.0783
      52    O13     15.774747   23.044139   23.049655 O.3        1 MOL1        -0.5519
      53    H25     15.746130   22.187354   23.542140 H          1 MOL1         0.3769
      54    C16     16.260234   22.157685   20.823386 C.3        1 MOL1         0.1018
      55    H26     15.283656   22.579600   20.551591 H          1 MOL1         0.0783
      56    C17     17.205833   22.249994   19.593422 C.3        1 MOL1         0.1043
      57    H27     18.050669   21.570174   19.760799 H          1 MOL1         0.0783
      58    O14     17.697438   23.603253   19.420730 O.3        1 MOL1        -0.3740
      59    C18     16.520138   21.825180   18.276150 C.3        1 MOL1         0.0138
      60    H28     16.155242   20.794515   18.378446 H          1 MOL1         0.0794
      61    H29     17.267856   21.831816   17.471939 H          1 MOL1         0.0794
      62    O15     15.437289   22.703038   17.953589 O.3        1 MOL1        -0.5486
      63    H30     15.812806   23.611731   17.963364 H          1 MOL1         0.3769
      64    C19     23.315904   22.660162   22.203916 C.3        1 MOL1         0.2972
      65    H31     24.337405   22.755831   22.592223 H          1 MOL1         0.0751
      66    O16     23.098004   21.371630   21.589679 O.3        1 MOL1        -0.3740
      67    C20     22.288247   22.840524   23.349000 C.3        1 MOL1         0.1003
      68    H32     22.430611   23.847137   23.762595 H          1 MOL1         0.0783
      69    O17     22.523714   21.870272   24.384876 O.3        1 MOL1        -0.5519
      70    H33     21.645200   21.465965   24.614572 H          1 MOL1         0.3769
      71    C21     20.839775   22.753922   22.803289 C.3        1 MOL1         0.1053
      72    H34     20.661770   21.720515   22.484324 H          1 MOL1         0.0783
      73    O18     19.911469   23.102836   23.836591 O.3        1 MOL1        -0.5519
      74    H35     19.800284   22.277825   24.380887 H          1 MOL1         0.3769
      75    C22     20.620321   23.673477   21.572532 C.3        1 MOL1         0.1018
      76    H36     20.496859   24.708188   21.918280 H          1 MOL1         0.0783
      77    C23     21.782892   23.593581   20.544434 C.3        1 MOL1         0.1043
      78    H37     21.711338   22.630792   20.021700 H          1 MOL1         0.0783
      79    O19     23.060272   23.684396   21.220332 O.3        1 MOL1        -0.3740
      80    C24     21.733066   24.707500   19.475225 C.3        1 MOL1         0.0138
      81    H38     20.819015   24.589525   18.878240 H          1 MOL1         0.0794
      82    H39     22.586135   24.581366   18.795043 H          1 MOL1         0.0794
      83    O20     21.765243   26.005049   20.076790 O.3        1 MOL1        -0.5486
      84    H40     22.581233   26.033411   20.624566 H          1 MOL1         0.3769
      85    C25     25.043368   17.697595   21.240756 C.3        1 MOL1         0.2972
      86    H41     25.762879   16.894975   21.034829 H          1 MOL1         0.0751
      87    O21     23.739818   17.177641   21.568892 O.3        1 MOL1        -0.3740
      88    C26     25.526513   18.572631   22.425382 C.3        1 MOL1         0.1003
      89    H42     26.497630   19.001344   22.145803 H          1 MOL1         0.0783
      90    O22     25.677666   17.791873   23.619690 O.3        1 MOL1        -0.5519
      91    H43     25.838321   18.454493   24.328832 H          1 MOL1         0.3769
      92    C27     24.544190   19.739675   22.685934 C.3        1 MOL1         0.1053
      93    H44     23.598668   19.303824   23.027848 H          1 MOL1         0.0783
      94    O23     25.077301   20.586468   23.711332 O.3        1 MOL1        -0.5519
      95    H45     24.302633   21.079208   24.080539 H          1 MOL1         0.3769
      96    C28     24.259658   20.542162   21.384352 C.3        1 MOL1         0.1018
      97    H46     25.137188   21.146489   21.119115 H          1 MOL1         0.0783
      98    C29     23.914415   19.602345   20.196798 C.3        1 MOL1         0.1043
      99    H47     22.926144   19.158707   20.378119 H          1 MOL1         0.0783
     100    O24     24.909843   18.555142   20.088019 O.3        1 MOL1        -0.3740
     101    C30     23.860360   20.336627   18.838792 C.3        1 MOL1         0.0138
     102    H48     23.096271   21.123238   18.885535 H          1 MOL1         0.0794
     103    H49     23.549525   19.622233   18.064930 H          1 MOL1         0.0794
     104    O25     25.132267   20.902338   18.508536 O.3        1 MOL1        -0.5486
     105    H50     25.780738   20.166210   18.573247 H          1 MOL1         0.3769
     106    C31     21.429224   13.759500   21.548277 C.3        1 MOL1         0.2972
     107    H51     21.034727   12.735866   21.530088 H          1 MOL1         0.0751
     108    O26     20.375490   14.740610   21.466906 O.3        1 MOL1        -0.3740
     109    C32     22.226923   13.992291   22.855367 C.3        1 MOL1         0.1003
     110    H52     23.056851   13.273808   22.864725 H          1 MOL1         0.0783
     111    O27     21.404830   13.778031   24.011242 O.3        1 MOL1        -0.5519
     112    H53     21.942467   14.113513   24.763378 H          1 MOL1         0.3769
     113    C33     22.830522   15.414936   22.891353 C.3        1 MOL1         0.1053
     114    H54     22.005048   16.129700   22.990073 H          1 MOL1         0.0783
     115    O28     23.713943   15.534810   24.013134 O.3        1 MOL1        -0.5519
     116    H55     24.222932   16.372899   23.883576 H          1 MOL1         0.3769
     117    C34     23.604114   15.744714   21.591047 C.3        1 MOL1         0.1018
     118    H56     24.577710   15.238404   21.630044 H          1 MOL1         0.0783
     119    C35     22.840796   15.324837   20.303406 C.3        1 MOL1         0.1043
     120    H57     22.005359   16.021630   20.153264 H          1 MOL1         0.0783
     121    O29     22.332512   13.974562   20.443695 O.3        1 MOL1        -0.3740
     122    C36     23.717397   15.360357   19.031779 C.3        1 MOL1         0.0138
     123    H58     24.041129   16.392370   18.845217 H          1 MOL1         0.0794
     124    H59     23.106130   15.050457   18.173687 H          1 MOL1         0.0794
     125    O30     24.854247   14.502130   19.165551 O.3        1 MOL1        -0.5486
     126    H60     24.499144   13.608130   19.368803 H          1 MOL1         0.3769
     127    C1      19.606893   19.494431   24.364553 C.2        1 MOL1         0.6075
     128    O1      18.467426   19.121562   24.569606 O.co2      1 MOL1        -0.6830
     129    O2      20.062650   20.532073   24.808074 O.co2      1 MOL1        -0.6830
     130    C2      20.540524   18.600705   23.549342 C.3        1 MOL1        -0.2050
     131    H1      20.712851   17.697010   24.144190 H          1 MOL1         0.0710
     132    H2      21.503623   19.111111   23.463465 H          1 MOL1         0.0710
     133    C3      20.040864   18.199088   22.134482 C.3        1 MOL1        -0.1947
     134    H3      20.765930   17.507708   21.689527 H          1 MOL1         0.0712
     135    H4      19.101672   17.641989   22.222868 H          1 MOL1         0.0712
     136    C4      19.859584   19.398746   21.180688 C.3        1 MOL1        -0.1921
     137    H5      20.804024   19.950925   21.104587 H          1 MOL1         0.0712
     138    H6      19.111168   20.092718   21.587785 H          1 MOL1         0.0712
     139    C5      19.429249   18.941992   19.772606 C.3        1 MOL1        -0.2936
     140    H7      19.374526   19.796548   19.087442 H          1 MOL1         0.0724
     141    H8      18.441113   18.466164   19.803782 H          1 MOL1         0.0724
     142    H9      20.146901   18.222969   19.357471 H          1 MOL1         0.0724
@<TRIPOS>BOND
    1     1     2    1
    2     1     3    1
    3     1     4    1
    4     4     5    1
    5     4     6    1
    6     6     7    1
    7     4     8    1
    8     8     9    1
    9     8    10    1
   10    10    11    1
   11     8    12    1
   12    12    13    1
   13    12    14    1
   14    14    15    1
   15     1    16    1
   16    14    16    1
   17    14    17    1
   18    17    18    1
   19    17    19    1
   20    17    20    1
   21    20    21    1
   22    22    23    1
   23    22    24    1
   24    22    25    1
   25    25    26    1
   26    25    27    1
   27    27    28    1
   28    25    29    1
   29    29    30    1
   30    29    31    1
   31    31    32    1
   32     3    33    1
   33    29    33    1
   34    33    34    1
   35    33    35    1
   36    35    36    1
   37    22    37    1
   38    35    37    1
   39    35    38    1
   40    38    39    1
   41    38    40    1
   42    38    41    1
   43    41    42    1
   44    43    44    1
   45    43    45    1
   46    43    46    1
   47    46    47    1
   48    46    48    1
   49    48    49    1
   50    46    50    1
   51    50    51    1
   52    50    52    1
   53    52    53    1
   54    24    54    1
   55    50    54    1
   56    54    55    1
   57    54    56    1
   58    56    57    1
   59    43    58    1
   60    56    58    1
   61    56    59    1
   62    59    60    1
   63    59    61    1
   64    59    62    1
   65    62    63    1
   66    64    65    1
   67    64    66    1
   68    64    67    1
   69    67    68    1
   70    67    69    1
   71    69    70    1
   72    67    71    1
   73    71    72    1
   74    71    73    1
   75    73    74    1
   76    45    75    1
   77    71    75    1
   78    75    76    1
   79    75    77    1
   80    77    78    1
   81    64    79    1
   82    77    79    1
   83    77    80    1
   84    80    81    1
   85    80    82    1
   86    80    83    1
   87    83    84    1
   88    85    86    1
   89    85    87    1
   90    85    88    1
   91    88    89    1
   92    88    90    1
   93    90    91    1
   94    88    92    1
   95    92    93    1
   96    92    94    1
   97    94    95    1
   98    66    96    1
   99    92    96    1
  100    96    97    1
  101    96    98    1
  102    98    99    1
  103    85   100    1
  104    98   100    1
  105    98   101    1
  106   101   102    1
  107   101   103    1
  108   101   104    1
  109   104   105    1
  110   106   107    1
  111    12   108    1
  112   106   108    1
  113   106   109    1
  114   109   110    1
  115   109   111    1
  116   111   112    1
  117   109   113    1
  118   113   114    1
  119   113   115    1
  120   115   116    1
  121    87   117    1
  122   113   117    1
  123   117   118    1
  124   117   119    1
  125   119   120    1
  126   106   121    1
  127   119   121    1
  128   119   122    1
  129   122   123    1
  130   122   124    1
  131   122   125    1
  132   125   126    1
  133   127   128    1
  134   127   129    2
  135   127   130    1
  136   130   131    1
  137   130   132    1
  138   130   133    1
  139   133   134    1
  140   133   135    1
  141   133   136    1
  142   136   137    1
  143   136   138    1
  144   136   139    1
  145   139   140    1
  146   139   141    1
  147   139   142    1
@<TRIPOS>SUBSTRUCTURE
       1 MOL1            1 RESIDUE      1      MOL     
       2 MOL1          142 RESIDUE      1      MOL     
@<SCITEGIC>MOL_PROPERTY
VM2 Rank
SciTegic.value.IntegerValue
4

@<SCITEGIC>MOL_PROPERTY
Conf_Id
SciTegic.value.IntegerValue
17154

@<SCITEGIC>MOL_PROPERTY
Probability
SciTegic.value.DoubleValue
1.19

@<SCITEGIC>MOL_PROPERTY
Sum Probability
SciTegic.value.DoubleValue
4.99

@<SCITEGIC>MOL_PROPERTY
Delta G
SciTegic.value.DoubleValue
0.047

@<SCITEGIC>MOL_PROPERTY
G
SciTegic.value.DoubleValue
481.915

@<SCITEGIC>MOL_PROPERTY
E
SciTegic.value.DoubleValue
297.054

@<SCITEGIC>MOL_PROPERTY
-TS
SciTegic.value.DoubleValue
184.861

@<SCITEGIC>MOL_PROPERTY
U+W
SciTegic.value.DoubleValue
171.860

@<SCITEGIC>MOL_PROPERTY
U
SciTegic.value.DoubleValue
234.290

@<SCITEGIC>MOL_PROPERTY
W
SciTegic.value.DoubleValue
-62.430

@<SCITEGIC>MOL_PROPERTY
W(PB)
SciTegic.value.DoubleValue
-68.469

@<SCITEGIC>MOL_PROPERTY
W(SA)
SciTegic.value.DoubleValue
6.039

@<SCITEGIC>MOL_PROPERTY
Valence
SciTegic.value.DoubleValue
150.658

@<SCITEGIC>MOL_PROPERTY
Coulomb
SciTegic.value.DoubleValue
103.919

@<SCITEGIC>MOL_PROPERTY
VdW
SciTegic.value.DoubleValue
-20.287

@<SCITEGIC>MOL_PROPERTY
VdW6
SciTegic.value.DoubleValue
-181.258

@<SCITEGIC>MOL_PROPERTY
VdW12
SciTegic.value.DoubleValue
160.971

@<SCITEGIC>MOL_PROPERTY
Bond
SciTegic.value.DoubleValue
5.146

@<SCITEGIC>MOL_PROPERTY
Angle
SciTegic.value.DoubleValue
12.597

@<SCITEGIC>MOL_PROPERTY
Pdih
SciTegic.value.DoubleValue
132.913

@<SCITEGIC>MOL_PROPERTY
Idih
SciTegic.value.DoubleValue
0.003

@<SCITEGIC>MOL_PROPERTY
Tether
SciTegic.value.DoubleValue
0.000

@<TRIPOS>MOLECULE
CD_guest-s18_vm2_rndm.mol2 : vm2 host+ligand conformer 5
         142         147           2
SMALL
USER_CHARGES
 
@<TRIPOS>ATOM
       1    C1      16.300961   15.237075   20.715945 C.3        1 MOL1         0.2972
       2    H1      15.249477   15.115070   20.426106 H          1 MOL1         0.0751
       3    O1      16.612630   16.621366   20.973343 O.3        1 MOL1        -0.3740
       4    C2      16.638715   14.364637   21.958755 C.3        1 MOL1         0.1003
       5    H2      16.456621   13.320378   21.674683 H          1 MOL1         0.0783
       6    O2      15.787261   14.691309   23.067862 O.3        1 MOL1        -0.5519
       7    H3      16.056929   15.592539   23.375983 H          1 MOL1         0.3769
       8    C3      18.139865   14.492408   22.334960 C.3        1 MOL1         0.1053
       9    H4      18.313823   15.512619   22.702231 H          1 MOL1         0.0783
      10    O3      18.492175   13.543186   23.349790 O.3        1 MOL1        -0.5519
      11    H5      19.440587   13.709387   23.575514 H          1 MOL1         0.3769
      12    C4      19.049976   14.254929   21.102849 C.3        1 MOL1         0.1018
      13    H6      19.064514   13.180988   20.874752 H          1 MOL1         0.0783
      14    C5      18.576922   15.027003   19.843301 C.3        1 MOL1         0.1043
      15    H7      18.775121   16.095844   19.995298 H          1 MOL1         0.0783
      16    O4      17.158475   14.804913   19.639499 O.3        1 MOL1        -0.3740
      17    C6      19.304600   14.587795   18.553442 C.3        1 MOL1         0.0138
      18    H8      20.381198   14.765706   18.668218 H          1 MOL1         0.0794
      19    H9      18.955164   15.214378   17.722066 H          1 MOL1         0.0794
      20    O5      19.060431   13.206808   18.269815 O.3        1 MOL1        -0.5486
      21    H10     18.083002   13.101529   18.257423 H          1 MOL1         0.3769
      22    C7      14.919659   20.301594   21.830802 C.3        1 MOL1         0.2972
      23    H11     14.271568   21.138414   22.119789 H          1 MOL1         0.0751
      24    O6      16.121681   20.758817   21.176447 O.3        1 MOL1        -0.3740
      25    C8      15.313917   19.466957   23.076880 C.3        1 MOL1         0.1003
      26    H12     14.389059   19.061703   23.506865 H          1 MOL1         0.0783
      27    O7      15.958779   20.297743   24.057859 O.3        1 MOL1        -0.5519
      28    H13     16.826806   19.869267   24.289319 H          1 MOL1         0.3769
      29    C9      16.206713   18.271387   22.661397 C.3        1 MOL1         0.1053
      30    H14     17.153067   18.678865   22.284740 H          1 MOL1         0.0783
      31    O8      16.452123   17.421236   23.788531 O.3        1 MOL1        -0.5519
      32    H15     17.183487   17.868095   24.292503 H          1 MOL1         0.3769
      33    C10     15.562695   17.443815   21.521862 C.3        1 MOL1         0.1018
      34    H16     14.745679   16.842438   21.941349 H          1 MOL1         0.0783
      35    C11     15.022045   18.338695   20.371390 C.3        1 MOL1         0.1043
      36    H17     15.880395   18.748623   19.822600 H          1 MOL1         0.0783
      37    O9      14.227955   19.423074   20.916537 O.3        1 MOL1        -0.3740
      38    C12     14.143241   17.575009   19.355850 C.3        1 MOL1         0.0138
      39    H18     14.759596   16.825587   18.841896 H          1 MOL1         0.0794
      40    H19     13.788654   18.282444   18.594344 H          1 MOL1         0.0794
      41    O10     13.033794   16.943351   20.001310 O.3        1 MOL1        -0.5486
      42    H20     12.543347   17.657040   20.466761 H          1 MOL1         0.3769
      43    C13     18.371410   24.163347   20.603820 C.3        1 MOL1         0.2972
      44    H21     18.799992   25.138313   20.338445 H          1 MOL1         0.0751
      45    O11     19.401201   23.206680   20.935935 O.3        1 MOL1        -0.3740
      46    C14     17.358446   24.293117   21.771803 C.3        1 MOL1         0.1003
      47    H22     16.524610   24.905826   21.405967 H          1 MOL1         0.0783
      48    O12     17.946549   24.957707   22.899907 O.3        1 MOL1        -0.5519
      49    H23     18.575950   24.314336   23.310296 H          1 MOL1         0.3769
      50    C15     16.787179   22.897574   22.143948 C.3        1 MOL1         0.1053
      51    H24     17.605847   22.290865   22.555977 H          1 MOL1         0.0783
      52    O13     15.749298   23.036534   23.121204 O.3        1 MOL1        -0.5519
      53    H25     15.728123   22.177813   23.610807 H          1 MOL1         0.3769
      54    C16     16.226673   22.166885   20.887674 C.3        1 MOL1         0.1018
      55    H26     15.249943   22.591806   20.620713 H          1 MOL1         0.0783
      56    C17     17.163137   22.266308   19.652752 C.3        1 MOL1         0.1043
      57    H27     18.012558   21.587500   19.801585 H          1 MOL1         0.0783
      58    O14     17.630798   23.628862   19.487708 O.3        1 MOL1        -0.3740
      59    C18     16.442660   21.857609   18.351153 C.3        1 MOL1         0.0138
      60    H28     15.619253   22.558075   18.157894 H          1 MOL1         0.0794
      61    H29     16.008480   20.856764   18.476824 H          1 MOL1         0.0794
      62    O15     17.365562   21.855803   17.260393 O.3        1 MOL1        -0.5486
      63    H30     17.839319   22.716284   17.305592 H          1 MOL1         0.3769
      64    C19     23.285836   22.677310   22.199451 C.3        1 MOL1         0.2972
      65    H31     24.311360   22.771744   22.577286 H          1 MOL1         0.0751
      66    O16     23.062740   21.392419   21.579507 O.3        1 MOL1        -0.3740
      67    C20     22.270341   22.849015   23.356653 C.3        1 MOL1         0.1003
      68    H32     22.416075   23.853084   23.775230 H          1 MOL1         0.0783
      69    O17     22.517789   21.872375   24.383731 O.3        1 MOL1        -0.5519
      70    H33     21.642152   21.466020   24.620649 H          1 MOL1         0.3769
      71    C21     20.816207   22.764426   22.825934 C.3        1 MOL1         0.1053
      72    H34     20.635883   21.733127   22.501403 H          1 MOL1         0.0783
      73    O18     19.899094   23.104467   23.872062 O.3        1 MOL1        -0.5519
      74    H35     19.795172   22.275556   24.411881 H          1 MOL1         0.3769
      75    C22     20.582571   23.692632   21.604113 C.3        1 MOL1         0.1018
      76    H36     20.461789   24.724914   21.957954 H          1 MOL1         0.0783
      77    C23     21.733894   23.620088   20.562927 C.3        1 MOL1         0.1043
      78    H37     21.657253   22.660512   20.034945 H          1 MOL1         0.0783
      79    O19     23.018555   23.707644   21.225347 O.3        1 MOL1        -0.3740
      80    C24     21.671366   24.740590   19.501328 C.3        1 MOL1         0.0138
      81    H38     20.750606   24.625784   18.914153 H          1 MOL1         0.0794
      82    H39     22.516651   24.619108   18.810665 H          1 MOL1         0.0794
      83    O20     21.709782   26.034396   20.110558 O.3        1 MOL1        -0.5486
      84    H40     22.531723   26.059592   20.649512 H          1 MOL1         0.3769
      85    C25     25.010763   17.722542   21.191654 C.3        1 MOL1         0.2972
      86    H41     25.730214   16.923122   20.973443 H          1 MOL1         0.0751
      87    O21     23.712887   17.196936   21.532921 O.3        1 MOL1        -0.3740
      88    C26     25.505236   18.593269   22.374750 C.3        1 MOL1         0.1003
      89    H42     26.472082   19.025617   22.086111 H          1 MOL1         0.0783
      90    O22     25.671927   17.807368   23.563628 O.3        1 MOL1        -0.5519
      91    H43     25.838664   18.467178   24.273987 H          1 MOL1         0.3769
      92    C27     24.523245   19.756772   22.651937 C.3        1 MOL1         0.1053
      93    H44     23.582377   19.317338   23.002142 H          1 MOL1         0.0783
      94    O23     25.066243   20.599531   23.675474 O.3        1 MOL1        -0.5519
      95    H45     24.294674   21.088318   24.056249 H          1 MOL1         0.3769
      96    C28     24.222617   20.564771   21.357380 C.3        1 MOL1         0.1018
      97    H46     25.096410   21.171038   21.084368 H          1 MOL1         0.0783
      98    C29     23.864466   19.629287   20.170219 C.3        1 MOL1         0.1043
      99    H47     22.879668   19.182398   20.362065 H          1 MOL1         0.0783
     100    O24     24.861027   18.585037   20.044554 O.3        1 MOL1        -0.3740
     101    C30     23.791403   20.369187   18.816142 C.3        1 MOL1         0.0138
     102    H48     23.025875   21.153553   18.875833 H          1 MOL1         0.0794
     103    H49     23.472607   19.657285   18.043220 H          1 MOL1         0.0794
     104    O25     25.057644   20.939570   18.472334 O.3        1 MOL1        -0.5486
     105    H50     25.708696   20.204821   18.525664 H          1 MOL1         0.3769
     106    C31     21.412971   13.771746   21.520913 C.3        1 MOL1         0.2972
     107    H51     21.021165   12.747093   21.501939 H          1 MOL1         0.0751
     108    O26     20.355690   14.750201   21.456376 O.3        1 MOL1        -0.3740
     109    C32     22.224246   14.000324   22.820349 C.3        1 MOL1         0.1003
     110    H52     23.056102   13.284022   22.817166 H          1 MOL1         0.0783
     111    O27     21.415088   13.778097   23.983869 O.3        1 MOL1        -0.5519
     112    H53     21.959914   14.110947   24.731971 H          1 MOL1         0.3769
     113    C33     22.824481   15.424444   22.856911 C.3        1 MOL1         0.1053
     114    H54     21.998350   16.136381   22.969478 H          1 MOL1         0.0783
     115    O28     23.720713   15.540739   23.968858 O.3        1 MOL1        -0.5519
     116    H55     24.225383   16.381253   23.838110 H          1 MOL1         0.3769
     117    C34     23.581996   15.763472   21.549443 C.3        1 MOL1         0.1018
     118    H56     24.557610   15.260194   21.574806 H          1 MOL1         0.0783
     119    C35     22.805649   15.347599   20.268316 C.3        1 MOL1         0.1043
     120    H57     21.966390   16.042467   20.130996 H          1 MOL1         0.0783
     121    O29     22.303340   13.995009   20.407553 O.3        1 MOL1        -0.3740
     122    C36     23.667797   15.392145   18.987121 C.3        1 MOL1         0.0138
     123    H58     23.986015   16.426103   18.801889 H          1 MOL1         0.0794
     124    H59     23.047944   15.084327   18.134456 H          1 MOL1         0.0794
     125    O30     24.808876   14.537060   19.103964 O.3        1 MOL1        -0.5486
     126    H60     24.458991   13.640953   19.306978 H          1 MOL1         0.3769
     127    C1      19.603819   19.491508   24.387651 C.2        1 MOL1         0.6075
     128    O1      18.465742   19.118400   24.600269 O.co2      1 MOL1        -0.6830
     129    O2      20.062740   20.528887   24.828588 O.co2      1 MOL1        -0.6830
     130    C2      20.531224   18.599125   23.563946 C.3        1 MOL1        -0.2050
     131    H1      20.706220   17.693010   24.154364 H          1 MOL1         0.0710
     132    H2      21.494520   19.108476   23.473600 H          1 MOL1         0.0710
     133    C3      20.021486   18.203420   22.151128 C.3        1 MOL1        -0.1947
     134    H3      20.744078   17.515663   21.696774 H          1 MOL1         0.0712
     135    H4      19.083928   17.644358   22.244076 H          1 MOL1         0.0712
     136    C4      19.830189   19.407225   21.204716 C.3        1 MOL1        -0.1921
     137    H5      20.772413   19.962342   21.123790 H          1 MOL1         0.0712
     138    H6      19.082980   20.097440   21.620256 H          1 MOL1         0.0712
     139    C5      19.390115   18.955730   19.798009 C.3        1 MOL1        -0.2936
     140    H7      20.108166   18.243788   19.371701 H          1 MOL1         0.0724
     141    H8      19.322434   19.813802   19.117760 H          1 MOL1         0.0724
     142    H9      18.405049   18.474179   19.834828 H          1 MOL1         0.0724
@<TRIPOS>BOND
    1     1     2    1
    2     1     3    1
    3     1     4    1
    4     4     5    1
    5     4     6    1
    6     6     7    1
    7     4     8    1
    8     8     9    1
    9     8    10    1
   10    10    11    1
   11     8    12    1
   12    12    13    1
   13    12    14    1
   14    14    15    1
   15     1    16    1
   16    14    16    1
   17    14    17    1
   18    17    18    1
   19    17    19    1
   20    17    20    1
   21    20    21    1
   22    22    23    1
   23    22    24    1
   24    22    25    1
   25    25    26    1
   26    25    27    1
   27    27    28    1
   28    25    29    1
   29    29    30    1
   30    29    31    1
   31    31    32    1
   32     3    33    1
   33    29    33    1
   34    33    34    1
   35    33    35    1
   36    35    36    1
   37    22    37    1
   38    35    37    1
   39    35    38    1
   40    38    39    1
   41    38    40    1
   42    38    41    1
   43    41    42    1
   44    43    44    1
   45    43    45    1
   46    43    46    1
   47    46    47    1
   48    46    48    1
   49    48    49    1
   50    46    50    1
   51    50    51    1
   52    50    52    1
   53    52    53    1
   54    24    54    1
   55    50    54    1
   56    54    55    1
   57    54    56    1
   58    56    57    1
   59    43    58    1
   60    56    58    1
   61    56    59    1
   62    59    60    1
   63    59    61    1
   64    59    62    1
   65    62    63    1
   66    64    65    1
   67    64    66    1
   68    64    67    1
   69    67    68    1
   70    67    69    1
   71    69    70    1
   72    67    71    1
   73    71    72    1
   74    71    73    1
   75    73    74    1
   76    45    75    1
   77    71    75    1
   78    75    76    1
   79    75    77    1
   80    77    78    1
   81    64    79    1
   82    77    79    1
   83    77    80    1
   84    80    81    1
   85    80    82    1
   86    80    83    1
   87    83    84    1
   88    85    86    1
   89    85    87    1
   90    85    88    1
   91    88    89    1
   92    88    90    1
   93    90    91    1
   94    88    92    1
   95    92    93    1
   96    92    94    1
   97    94    95    1
   98    66    96    1
   99    92    96    1
  100    96    97    1
  101    96    98    1
  102    98    99    1
  103    85   100    1
  104    98   100    1
  105    98   101    1
  106   101   102    1
  107   101   103    1
  108   101   104    1
  109   104   105    1
  110   106   107    1
  111    12   108    1
  112   106   108    1
  113   106   109    1
  114   109   110    1
  115   109   111    1
  116   111   112    1
  117   109   113    1
  118   113   114    1
  119   113   115    1
  120   115   116    1
  121    87   117    1
  122   113   117    1
  123   117   118    1
  124   117   119    1
  125   119   120    1
  126   106   121    1
  127   119   121    1
  128   119   122    1
  129   122   123    1
  130   122   124    1
  131   122   125    1
  132   125   126    1
  133   127   128    1
  134   127   129    2
  135   127   130    1
  136   130   131    1
  137   130   132    1
  138   130   133    1
  139   133   134    1
  140   133   135    1
  141   133   136    1
  142   136   137    1
  143   136   138    1
  144   136   139    1
  145   139   140    1
  146   139   141    1
  147   139   142    1
@<TRIPOS>SUBSTRUCTURE
       1 MOL1            1 RESIDUE      1      MOL     
       2 MOL1          142 RESIDUE      1      MOL     
@<SCITEGIC>MOL_PROPERTY
VM2 Rank
SciTegic.value.IntegerValue
5

@<SCITEGIC>MOL_PROPERTY
Conf_Id
SciTegic.value.IntegerValue
19682

@<SCITEGIC>MOL_PROPERTY
Probability
SciTegic.value.DoubleValue
1.13

@<SCITEGIC>MOL_PROPERTY
Sum Probability
SciTegic.value.DoubleValue
6.13

@<SCITEGIC>MOL_PROPERTY
Delta G
SciTegic.value.DoubleValue
0.077

@<SCITEGIC>MOL_PROPERTY
G
SciTegic.value.DoubleValue
481.946

@<SCITEGIC>MOL_PROPERTY
E
SciTegic.value.DoubleValue
297.241

@<SCITEGIC>MOL_PROPERTY
-TS
SciTegic.value.DoubleValue
184.706

@<SCITEGIC>MOL_PROPERTY
U+W
SciTegic.value.DoubleValue
172.047

@<SCITEGIC>MOL_PROPERTY
U
SciTegic.value.DoubleValue
234.543

@<SCITEGIC>MOL_PROPERTY
W
SciTegic.value.DoubleValue
-62.497

@<SCITEGIC>MOL_PROPERTY
W(PB)
SciTegic.value.DoubleValue
-68.519

@<SCITEGIC>MOL_PROPERTY
W(SA)
SciTegic.value.DoubleValue
6.022

@<SCITEGIC>MOL_PROPERTY
Valence
SciTegic.value.DoubleValue
150.862

@<SCITEGIC>MOL_PROPERTY
Coulomb
SciTegic.value.DoubleValue
104.209

@<SCITEGIC>MOL_PROPERTY
VdW
SciTegic.value.DoubleValue
-20.527

@<SCITEGIC>MOL_PROPERTY
VdW6
SciTegic.value.DoubleValue
-180.905

@<SCITEGIC>MOL_PROPERTY
VdW12
SciTegic.value.DoubleValue
160.378

@<SCITEGIC>MOL_PROPERTY
Bond
SciTegic.value.DoubleValue
5.120

@<SCITEGIC>MOL_PROPERTY
Angle
SciTegic.value.DoubleValue
12.518

@<SCITEGIC>MOL_PROPERTY
Pdih
SciTegic.value.DoubleValue
133.221

@<SCITEGIC>MOL_PROPERTY
Idih
SciTegic.value.DoubleValue
0.003

@<SCITEGIC>MOL_PROPERTY
Tether
SciTegic.value.DoubleValue
0.000

@<TRIPOS>MOLECULE
CD_guest-s18_vm2_rndm.mol2 : vm2 host+ligand conformer 6
         142         147           2
SMALL
USER_CHARGES
 
@<TRIPOS>ATOM
       1    C1      16.329508   15.240611   20.658787 C.3        1 MOL1         0.2972
       2    H1      15.281032   15.116047   20.359304 H          1 MOL1         0.0751
       3    O1      16.631676   16.623644   20.933472 O.3        1 MOL1        -0.3740
       4    C2      16.662546   14.356709   21.894629 C.3        1 MOL1         0.1003
       5    H2      16.490568   13.314469   21.597134 H          1 MOL1         0.0783
       6    O2      15.799032   14.664237   22.999864 O.3        1 MOL1        -0.5519
       7    H3      16.061267   15.562508   23.322602 H          1 MOL1         0.3769
       8    C3      18.159477   14.491013   22.285092 C.3        1 MOL1         0.1053
       9    H4      18.323813   15.508796   22.663742 H          1 MOL1         0.0783
      10    O3      18.508519   13.533646   23.293301 O.3        1 MOL1        -0.5519
      11    H5      19.453679   13.703443   23.529870 H          1 MOL1         0.3769
      12    C4      19.081338   14.271527   21.058319 C.3        1 MOL1         0.1018
      13    H6      19.104401   13.200011   20.819760 H          1 MOL1         0.0783
      14    C5      18.613663   15.052555   19.802422 C.3        1 MOL1         0.1043
      15    H7      18.804470   16.120811   19.966536 H          1 MOL1         0.0783
      16    O4      17.198131   14.824647   19.584769 O.3        1 MOL1        -0.3740
      17    C6      19.354981   14.630152   18.514718 C.3        1 MOL1         0.0138
      18    H8      20.429590   14.812781   18.640867 H          1 MOL1         0.0794
      19    H9      19.009396   15.262997   17.686491 H          1 MOL1         0.0794
      20    O5      19.120954   13.250722   18.215415 O.3        1 MOL1        -0.5486
      21    H10     18.144270   13.140210   18.193264 H          1 MOL1         0.3769
      22    C7      14.927937   20.287463   21.821114 C.3        1 MOL1         0.2972
      23    H11     14.279024   21.122098   22.114572 H          1 MOL1         0.0751
      24    O6      16.134839   20.750126   21.179220 O.3        1 MOL1        -0.3740
      25    C8      15.315775   19.442661   23.061769 C.3        1 MOL1         0.1003
      26    H12     14.388786   19.034609   23.484445 H          1 MOL1         0.0783
      27    O7      15.956424   20.266774   24.051316 O.3        1 MOL1        -0.5519
      28    H13     16.818622   19.831476   24.291282 H          1 MOL1         0.3769
      29    C9      16.209873   18.249706   22.640451 C.3        1 MOL1         0.1053
      30    H14     17.160151   18.659261   22.276085 H          1 MOL1         0.0783
      31    O8      16.444472   17.387137   23.760377 O.3        1 MOL1        -0.5519
      32    H15     17.172414   17.827062   24.275385 H          1 MOL1         0.3769
      33    C10     15.574930   17.433924   21.487007 C.3        1 MOL1         0.1018
      34    H16     14.758677   16.823528   21.894749 H          1 MOL1         0.0783
      35    C11     15.035806   18.339363   20.344231 C.3        1 MOL1         0.1043
      36    H17     15.894537   18.756745   19.802116 H          1 MOL1         0.0783
      37    O9      14.238931   19.416278   20.898169 O.3        1 MOL1        -0.3740
      38    C12     14.161037   17.585078   19.318290 C.3        1 MOL1         0.0138
      39    H18     14.780190   16.842795   18.797423 H          1 MOL1         0.0794
      40    H19     13.806653   18.300490   18.564092 H          1 MOL1         0.0794
      41    O10     13.051484   16.943799   19.954006 O.3        1 MOL1        -0.5486
      42    H20     12.558095   17.651496   20.425480 H          1 MOL1         0.3769
      43    C13     18.366442   24.166193   20.607256 C.3        1 MOL1         0.2972
      44    H21     18.786324   25.144961   20.344346 H          1 MOL1         0.0751
      45    O11     19.405311   23.218326   20.940799 O.3        1 MOL1        -0.3740
      46    C14     17.344124   24.291465   21.767233 C.3        1 MOL1         0.1003
      47    H22     16.505282   24.891168   21.391290 H          1 MOL1         0.0783
      48    O12     17.918153   24.974473   22.891258 O.3        1 MOL1        -0.5519
      49    H23     18.535992   24.334747   23.324065 H          1 MOL1         0.3769
      50    C15     16.786327   22.891773   22.143748 C.3        1 MOL1         0.1053
      51    H24     17.612023   22.291124   22.550188 H          1 MOL1         0.0783
      52    O13     15.753754   23.019598   23.128205 O.3        1 MOL1        -0.5519
      53    H25     15.734020   22.154989   23.607384 H          1 MOL1         0.3769
      54    C16     16.226649   22.158999   20.888571 C.3        1 MOL1         0.1018
      55    H26     15.244952   22.575481   20.626962 H          1 MOL1         0.0783
      56    C17     17.162586   22.268299   19.652445 C.3        1 MOL1         0.1043
      57    H27     18.015387   21.596132   19.809547 H          1 MOL1         0.0783
      58    O14     17.639506   23.627587   19.485118 O.3        1 MOL1        -0.3740
      59    C18     16.471906   21.845314   18.337197 C.3        1 MOL1         0.0138
      60    H28     16.118603   20.810218   18.434896 H          1 MOL1         0.0794
      61    H29     17.213725   21.865352   17.527748 H          1 MOL1         0.0794
      62    O15     15.377561   22.713832   18.028449 O.3        1 MOL1        -0.5486
      63    H30     15.743772   23.626268   18.040281 H          1 MOL1         0.3769
      64    C19     23.268059   22.684032   22.291930 C.3        1 MOL1         0.2972
      65    H31     24.284227   22.786340   22.692613 H          1 MOL1         0.0751
      66    O16     23.065036   21.393938   21.678307 O.3        1 MOL1        -0.3740
      67    C20     22.227337   22.860972   23.424184 C.3        1 MOL1         0.1003
      68    H32     22.367040   23.865255   23.844278 H          1 MOL1         0.0783
      69    O17     22.450318   21.885124   24.457735 O.3        1 MOL1        -0.5519
      70    H33     21.568214   21.484034   24.678531 H          1 MOL1         0.3769
      71    C21     20.785043   22.780188   22.861068 C.3        1 MOL1         0.1053
      72    H34     20.607114   21.747003   22.540866 H          1 MOL1         0.0783
      73    O18     19.850182   23.131110   23.886907 O.3        1 MOL1        -0.5519
      74    H35     19.730605   22.305055   24.427967 H          1 MOL1         0.3769
      75    C22     20.580914   23.699164   21.625188 C.3        1 MOL1         0.1018
      76    H36     20.469274   24.738754   21.960690 H          1 MOL1         0.0783
      77    C23     21.749958   23.597545   20.607585 C.3        1 MOL1         0.1043
      78    H37     21.677093   22.631978   20.089695 H          1 MOL1         0.0783
      79    O19     23.016385   23.702491   21.302592 O.3        1 MOL1        -0.3740
      80    C24     21.714392   24.715994   19.546118 C.3        1 MOL1         0.0138
      81    H38     21.844398   25.688660   20.039280 H          1 MOL1         0.0794
      82    H39     20.735333   24.717119   19.049481 H          1 MOL1         0.0794
      83    O20     22.744903   24.499897   18.580103 O.3        1 MOL1        -0.5486
      84    H40     23.563138   24.305759   19.091456 H          1 MOL1         0.3769
      85    C25     25.046105   17.755739   21.267159 C.3        1 MOL1         0.2972
      86    H41     25.769794   16.958740   21.054238 H          1 MOL1         0.0751
      87    O21     23.738472   17.227529   21.566046 O.3        1 MOL1        -0.3740
      88    C26     25.511802   18.608214   22.475145 C.3        1 MOL1         0.1003
      89    H42     26.480738   19.053013   22.213697 H          1 MOL1         0.0783
      90    O22     25.660315   17.803839   23.653690 O.3        1 MOL1        -0.5519
      91    H43     25.806566   18.452922   24.378384 H          1 MOL1         0.3769
      92    C27     24.514049   19.757903   22.750407 C.3        1 MOL1         0.1053
      93    H44     23.569096   19.302685   23.067061 H          1 MOL1         0.0783
      94    O23     25.019414   20.587567   23.803628 O.3        1 MOL1        -0.5519
      95    H45     24.235599   21.075101   24.160230 H          1 MOL1         0.3769
      96    C28     24.240752   20.588406   21.464990 C.3        1 MOL1         0.1018
      97    H46     25.114026   21.211843   21.231795 H          1 MOL1         0.0783
      98    C29     23.927581   19.680402   20.244475 C.3        1 MOL1         0.1043
      99    H47     22.935607   19.230942   20.388325 H          1 MOL1         0.0783
     100    O24     24.927448   18.637311   20.130860 O.3        1 MOL1        -0.3740
     101    C30     23.909043   20.455412   18.907829 C.3        1 MOL1         0.0138
     102    H48     23.145782   21.242903   18.957600 H          1 MOL1         0.0794
     103    H49     23.617441   19.765567   18.104823 H          1 MOL1         0.0794
     104    O25     25.190399   21.027725   18.628460 O.3        1 MOL1        -0.5486
     105    H50     25.835237   20.287957   18.685567 H          1 MOL1         0.3769
     106    C31     21.442605   13.797552   21.493405 C.3        1 MOL1         0.2972
     107    H51     21.055941   12.771352   21.458961 H          1 MOL1         0.0751
     108    O26     20.381431   14.771726   21.426054 O.3        1 MOL1        -0.3740
     109    C32     22.237257   14.015793   22.804810 C.3        1 MOL1         0.1003
     110    H52     23.071778   13.302579   22.803992 H          1 MOL1         0.0783
     111    O27     21.415973   13.778391   23.956668 O.3        1 MOL1        -0.5519
     112    H53     21.950869   14.106649   24.713981 H          1 MOL1         0.3769
     113    C33     22.832069   15.441370   22.863584 C.3        1 MOL1         0.1053
     114    H54     22.002346   16.150136   22.971628 H          1 MOL1         0.0783
     115    O28     23.711992   15.547101   23.989438 O.3        1 MOL1        -0.5519
     116    H55     24.219438   16.388297   23.874514 H          1 MOL1         0.3769
     117    C34     23.606578   15.793998   21.569533 C.3        1 MOL1         0.1018
     118    H56     24.581447   15.289635   21.601077 H          1 MOL1         0.0783
     119    C35     22.845347   15.391554   20.275348 C.3        1 MOL1         0.1043
     120    H57     22.005715   16.085832   20.137166 H          1 MOL1         0.0783
     121    O29     22.345165   14.036130   20.392975 O.3        1 MOL1        -0.3740
     122    C36     23.722193   15.454579   19.004992 C.3        1 MOL1         0.0138
     123    H58     24.042701   16.491216   18.839047 H          1 MOL1         0.0794
     124    H59     23.112303   15.159408   18.140754 H          1 MOL1         0.0794
     125    O30     24.861828   14.597677   19.122767 O.3        1 MOL1        -0.5486
     126    H60     24.509564   13.699100   19.310181 H          1 MOL1         0.3769
     127    C1      19.569129   19.500256   24.395363 C.2        1 MOL1         0.6075
     128    O1      18.451717   19.069640   24.607978 O.co2      1 MOL1        -0.6830
     129    O2      19.977777   20.554418   24.845760 O.co2      1 MOL1        -0.6830
     130    C2      20.537413   18.661749   23.562040 C.3        1 MOL1        -0.2050
     131    H1      20.764575   17.764401   24.147996 H          1 MOL1         0.0710
     132    H2      21.470545   19.223378   23.467655 H          1 MOL1         0.0710
     133    C3      20.041406   18.244731   22.150371 C.3        1 MOL1        -0.1947
     134    H3      20.783011   17.573264   21.701943 H          1 MOL1         0.0712
     135    H4      19.117874   17.662214   22.243500 H          1 MOL1         0.0712
     136    C4      19.825362   19.439535   21.197559 C.3        1 MOL1        -0.1921
     137    H5      20.757844   20.010688   21.110934 H          1 MOL1         0.0712
     138    H6      19.067385   20.118495   21.612059 H          1 MOL1         0.0712
     139    C5      19.390644   18.973251   19.793994 C.3        1 MOL1        -0.2936
     140    H7      19.317177   19.825263   19.107441 H          1 MOL1         0.0724
     141    H8      18.410302   18.482566   19.834100 H          1 MOL1         0.0724
     142    H9      20.116017   18.264686   19.374335 H          1 MOL1         0.0724
@<TRIPOS>BOND
    1     1     2    1
    2     1     3    1
    3     1     4    1
    4     4     5    1
    5     4     6    1
    6     6     7    1
    7     4     8    1
    8     8     9    1
    9     8    10    1
   10    10    11    1
   11     8    12    1
   12    12    13    1
   13    12    14    1
   14    14    15    1
   15     1    16    1
   16    14    16    1
   17    14    17    1
   18    17    18    1
   19    17    19    1
   20    17    20    1
   21    20    21    1
   22    22    23    1
   23    22    24    1
   24    22    25    1
   25    25    26    1
   26    25    27    1
   27    27    28    1
   28    25    29    1
   29    29    30    1
   30    29    31    1
   31    31    32    1
   32     3    33    1
   33    29    33    1
   34    33    34    1
   35    33    35    1
   36    35    36    1
   37    22    37    1
   38    35    37    1
   39    35    38    1
   40    38    39    1
   41    38    40    1
   42    38    41    1
   43    41    42    1
   44    43    44    1
   45    43    45    1
   46    43    46    1
   47    46    47    1
   48    46    48    1
   49    48    49    1
   50    46    50    1
   51    50    51    1
   52    50    52    1
   53    52    53    1
   54    24    54    1
   55    50    54    1
   56    54    55    1
   57    54    56    1
   58    56    57    1
   59    43    58    1
   60    56    58    1
   61    56    59    1
   62    59    60    1
   63    59    61    1
   64    59    62    1
   65    62    63    1
   66    64    65    1
   67    64    66    1
   68    64    67    1
   69    67    68    1
   70    67    69    1
   71    69    70    1
   72    67    71    1
   73    71    72    1
   74    71    73    1
   75    73    74    1
   76    45    75    1
   77    71    75    1
   78    75    76    1
   79    75    77    1
   80    77    78    1
   81    64    79    1
   82    77    79    1
   83    77    80    1
   84    80    81    1
   85    80    82    1
   86    80    83    1
   87    83    84    1
   88    85    86    1
   89    85    87    1
   90    85    88    1
   91    88    89    1
   92    88    90    1
   93    90    91    1
   94    88    92    1
   95    92    93    1
   96    92    94    1
   97    94    95    1
   98    66    96    1
   99    92    96    1
  100    96    97    1
  101    96    98    1
  102    98    99    1
  103    85   100    1
  104    98   100    1
  105    98   101    1
  106   101   102    1
  107   101   103    1
  108   101   104    1
  109   104   105    1
  110   106   107    1
  111    12   108    1
  112   106   108    1
  113   106   109    1
  114   109   110    1
  115   109   111    1
  116   111   112    1
  117   109   113    1
  118   113   114    1
  119   113   115    1
  120   115   116    1
  121    87   117    1
  122   113   117    1
  123   117   118    1
  124   117   119    1
  125   119   120    1
  126   106   121    1
  127   119   121    1
  128   119   122    1
  129   122   123    1
  130   122   124    1
  131   122   125    1
  132   125   126    1
  133   127   128    1
  134   127   129    2
  135   127   130    1
  136   130   131    1
  137   130   132    1
  138   130   133    1
  139   133   134    1
  140   133   135    1
  141   133   136    1
  142   136   137    1
  143   136   138    1
  144   136   139    1
  145   139   140    1
  146   139   141    1
  147   139   142    1
@<TRIPOS>SUBSTRUCTURE
       1 MOL1            1 RESIDUE      1      MOL     
       2 MOL1          142 RESIDUE      1      MOL     
@<SCITEGIC>MOL_PROPERTY
VM2 Rank
SciTegic.value.IntegerValue
6

@<SCITEGIC>MOL_PROPERTY
Conf_Id
SciTegic.value.IntegerValue
19123

@<SCITEGIC>MOL_PROPERTY
Probability
SciTegic.value.DoubleValue
0.99

@<SCITEGIC>MOL_PROPERTY
Sum Probability
SciTegic.value.DoubleValue
7.11

@<SCITEGIC>MOL_PROPERTY
Delta G
SciTegic.value.DoubleValue
0.160

@<SCITEGIC>MOL_PROPERTY
G
SciTegic.value.DoubleValue
482.029

@<SCITEGIC>MOL_PROPERTY
E
SciTegic.value.DoubleValue
297.491

@<SCITEGIC>MOL_PROPERTY
-TS
SciTegic.value.DoubleValue
184.537

@<SCITEGIC>MOL_PROPERTY
U+W
SciTegic.value.DoubleValue
172.297

@<SCITEGIC>MOL_PROPERTY
U
SciTegic.value.DoubleValue
234.677

@<SCITEGIC>MOL_PROPERTY
W
SciTegic.value.DoubleValue
-62.380

@<SCITEGIC>MOL_PROPERTY
W(PB)
SciTegic.value.DoubleValue
-68.394

@<SCITEGIC>MOL_PROPERTY
W(SA)
SciTegic.value.DoubleValue
6.014

@<SCITEGIC>MOL_PROPERTY
Valence
SciTegic.value.DoubleValue
151.360

@<SCITEGIC>MOL_PROPERTY
Coulomb
SciTegic.value.DoubleValue
103.936

@<SCITEGIC>MOL_PROPERTY
VdW
SciTegic.value.DoubleValue
-20.619

@<SCITEGIC>MOL_PROPERTY
VdW6
SciTegic.value.DoubleValue
-180.853

@<SCITEGIC>MOL_PROPERTY
VdW12
SciTegic.value.DoubleValue
160.234

@<SCITEGIC>MOL_PROPERTY
Bond
SciTegic.value.DoubleValue
5.118

@<SCITEGIC>MOL_PROPERTY
Angle
SciTegic.value.DoubleValue
12.574

@<SCITEGIC>MOL_PROPERTY
Pdih
SciTegic.value.DoubleValue
133.665

@<SCITEGIC>MOL_PROPERTY
Idih
SciTegic.value.DoubleValue
0.004

@<SCITEGIC>MOL_PROPERTY
Tether
SciTegic.value.DoubleValue
0.000

@<TRIPOS>MOLECULE
CD_guest-s18_vm2_rndm.mol2 : vm2 host+ligand conformer 7
         142         147           2
SMALL
USER_CHARGES
 
@<TRIPOS>ATOM
       1    C1      16.327757   15.276202   20.735636 C.3        1 MOL1         0.2972
       2    H1      15.277593   15.148286   20.443546 H          1 MOL1         0.0751
       3    O1      16.625186   16.656558   21.025559 O.3        1 MOL1        -0.3740
       4    C2      16.670273   14.392462   21.967621 C.3        1 MOL1         0.1003
       5    H2      16.486738   13.350245   21.677037 H          1 MOL1         0.0783
       6    O2      15.823519   14.715840   23.082131 O.3        1 MOL1        -0.5519
       7    H3      16.065958   15.630878   23.371338 H          1 MOL1         0.3769
       8    C3      18.172099   14.519828   22.339565 C.3        1 MOL1         0.1053
       9    H4      18.342011   15.536175   22.717130 H          1 MOL1         0.0783
      10    O3      18.527942   13.559276   23.342213 O.3        1 MOL1        -0.5519
      11    H5      19.476876   13.722328   23.568372 H          1 MOL1         0.3769
      12    C4      19.080477   14.303493   21.102363 C.3        1 MOL1         0.1018
      13    H6      19.090177   13.234158   20.853231 H          1 MOL1         0.0783
      14    C5      18.606013   15.099484   19.858641 C.3        1 MOL1         0.1043
      15    H7      18.798919   16.166833   20.029642 H          1 MOL1         0.0783
      16    O4      17.189260   14.872945   19.651165 O.3        1 MOL1        -0.3740
      17    C6      19.335972   14.686821   18.561091 C.3        1 MOL1         0.0138
      18    H8      20.412076   14.865271   18.680426 H          1 MOL1         0.0794
      19    H9      18.985741   15.328124   17.741375 H          1 MOL1         0.0794
      20    O5      19.095916   13.310830   18.250744 O.3        1 MOL1        -0.5486
      21    H10     18.118819   13.202897   18.235933 H          1 MOL1         0.3769
      22    C7      14.859683   20.320980   21.744745 C.3        1 MOL1         0.2972
      23    H11     14.202178   21.165694   21.986094 H          1 MOL1         0.0751
      24    O6      16.089636   20.759269   21.129556 O.3        1 MOL1        -0.3740
      25    C8      15.194954   19.511731   23.024002 C.3        1 MOL1         0.1003
      26    H12     14.251954   19.100505   23.406403 H          1 MOL1         0.0783
      27    O7      15.767263   20.366354   24.028062 O.3        1 MOL1        -0.5519
      28    H13     16.664304   20.001522   24.257302 H          1 MOL1         0.3769
      29    C9      16.123599   18.320755   22.675541 C.3        1 MOL1         0.1053
      30    H14     17.082971   18.730553   22.338512 H          1 MOL1         0.0783
      31    O8      16.334408   17.498102   23.829664 O.3        1 MOL1        -0.5519
      32    H15     17.001945   17.992231   24.373975 H          1 MOL1         0.3769
      33    C10     15.540037   17.465312   21.522499 C.3        1 MOL1         0.1018
      34    H16     14.721048   16.852916   21.922101 H          1 MOL1         0.0783
      35    C11     15.024347   18.328494   20.335004 C.3        1 MOL1         0.1043
      36    H17     15.895235   18.733445   19.802423 H          1 MOL1         0.0783
      37    O9      14.204957   19.418531   20.827737 O.3        1 MOL1        -0.3740
      38    C12     14.182724   17.535945   19.309927 C.3        1 MOL1         0.0138
      39    H18     14.822439   16.788660   18.822248 H          1 MOL1         0.0794
      40    H19     13.836850   18.226582   18.529138 H          1 MOL1         0.0794
      41    O10     13.066777   16.897393   19.937090 O.3        1 MOL1        -0.5486
      42    H20     12.549049   17.611572   20.371200 H          1 MOL1         0.3769
      43    C13     18.418454   24.099444   20.530778 C.3        1 MOL1         0.2972
      44    H21     18.868890   25.063938   20.263476 H          1 MOL1         0.0751
      45    O11     19.429706   23.121639   20.857534 O.3        1 MOL1        -0.3740
      46    C14     17.413381   24.258752   21.703487 C.3        1 MOL1         0.1003
      47    H22     16.605208   24.909152   21.345260 H          1 MOL1         0.0783
      48    O12     18.031597   24.884383   22.838291 O.3        1 MOL1        -0.5519
      49    H23     18.621767   24.202695   23.246181 H          1 MOL1         0.3769
      50    C15     16.783490   22.889243   22.074599 C.3        1 MOL1         0.1053
      51    H24     17.573091   22.256801   22.503940 H          1 MOL1         0.0783
      52    O13     15.736856   23.078955   23.034384 O.3        1 MOL1        -0.5519
      53    H25     15.659657   22.223067   23.522581 H          1 MOL1         0.3769
      54    C16     16.211882   22.162630   20.822753 C.3        1 MOL1         0.1018
      55    H26     15.240386   22.599002   20.555535 H          1 MOL1         0.0783
      56    C17     17.151155   22.238180   19.587367 C.3        1 MOL1         0.1043
      57    H27     17.983500   21.541007   19.746959 H          1 MOL1         0.0783
      58    O14     17.666304   23.582249   19.414994 O.3        1 MOL1        -0.3740
      59    C18     16.447700   21.830679   18.273956 C.3        1 MOL1         0.0138
      60    H28     16.061941   20.807648   18.376568 H          1 MOL1         0.0794
      61    H29     17.189894   21.823757   17.464621 H          1 MOL1         0.0794
      62    O15     15.381112   22.731518   17.960729 O.3        1 MOL1        -0.5486
      63    H30     15.775307   23.632309   17.971683 H          1 MOL1         0.3769
      64    C19     23.325956   22.636842   22.171560 C.3        1 MOL1         0.2972
      65    H31     24.339273   22.759661   22.573555 H          1 MOL1         0.0751
      66    O16     23.162844   21.358596   21.521140 O.3        1 MOL1        -0.3740
      67    C20     22.276058   22.756976   23.305835 C.3        1 MOL1         0.1003
      68    H32     22.369458   23.764931   23.729949 H          1 MOL1         0.0783
      69    O17     22.540582   21.794614   24.340488 O.3        1 MOL1        -0.5519
      70    H33     21.699070   21.287850   24.498606 H          1 MOL1         0.3769
      71    C21     20.840130   22.618374   22.736672 C.3        1 MOL1         0.1053
      72    H34     20.712814   21.595231   22.361694 H          1 MOL1         0.0783
      73    O18     19.880851   22.877179   23.769145 O.3        1 MOL1        -0.5519
      74    H35     19.822446   22.032701   24.291479 H          1 MOL1         0.3769
      75    C22     20.606816   23.586659   21.548190 C.3        1 MOL1         0.1018
      76    H36     20.480015   24.604275   21.939721 H          1 MOL1         0.0783
      77    C23     21.773819   23.561746   20.521685 C.3        1 MOL1         0.1043
      78    H37     21.733173   22.609923   19.976737 H          1 MOL1         0.0783
      79    O19     23.044985   23.674207   21.207683 O.3        1 MOL1        -0.3740
      80    C24     21.698689   24.698387   19.478064 C.3        1 MOL1         0.0138
      81    H38     20.794735   24.565345   18.869038 H          1 MOL1         0.0794
      82    H39     22.561614   24.615191   18.803774 H          1 MOL1         0.0794
      83    O20     21.683767   25.982135   20.109236 O.3        1 MOL1        -0.5486
      84    H40     22.494744   26.025171   20.663365 H          1 MOL1         0.3769
      85    C25     25.118050   17.682285   21.289329 C.3        1 MOL1         0.2972
      86    H41     25.839816   16.872913   21.121760 H          1 MOL1         0.0751
      87    O21     23.798499   17.175966   21.567126 O.3        1 MOL1        -0.3740
      88    C26     25.556122   18.564558   22.484829 C.3        1 MOL1         0.1003
      89    H42     26.538425   18.987958   22.238026 H          1 MOL1         0.0783
      90    O22     25.663195   17.793181   23.689733 O.3        1 MOL1        -0.5519
      91    H43     25.798478   18.461814   24.398557 H          1 MOL1         0.3769
      92    C27     24.571077   19.739109   22.700995 C.3        1 MOL1         0.1053
      93    H44     23.608741   19.318213   23.023422 H          1 MOL1         0.0783
      94    O23     25.092262   20.591444   23.727778 O.3        1 MOL1        -0.5519
      95    H45     24.311100   21.077984   24.091361 H          1 MOL1         0.3769
      96    C28     24.337358   20.531886   21.381945 C.3        1 MOL1         0.1018
      97    H46     25.222784   21.138751   21.151249 H          1 MOL1         0.0783
      98    C29     24.047693   19.585676   20.184678 C.3        1 MOL1         0.1043
      99    H47     23.050649   19.147427   20.322622 H          1 MOL1         0.0783
     100    O24     25.041188   18.532574   20.126333 O.3        1 MOL1        -0.3740
     101    C30     24.058197   20.314241   18.822574 C.3        1 MOL1         0.0138
     102    H48     23.301587   21.109804   18.834604 H          1 MOL1         0.0794
     103    H49     23.771974   19.599820   18.039329 H          1 MOL1         0.0794
     104    O25     25.349205   20.864256   18.543968 O.3        1 MOL1        -0.5486
     105    H50     25.986368   20.122054   18.643209 H          1 MOL1         0.3769
     106    C31     21.434793   13.793907   21.522260 C.3        1 MOL1         0.2972
     107    H51     21.029542   12.774690   21.494411 H          1 MOL1         0.0751
     108    O26     20.389994   14.786878   21.460349 O.3        1 MOL1        -0.3740
     109    C32     22.244961   13.999814   22.826014 C.3        1 MOL1         0.1003
     110    H52     23.065992   13.271127   22.819790 H          1 MOL1         0.0783
     111    O27     21.430057   13.781496   23.986035 O.3        1 MOL1        -0.5519
     112    H53     21.978615   14.101319   24.737243 H          1 MOL1         0.3769
     113    C33     22.866181   15.413769   22.875034 C.3        1 MOL1         0.1053
     114    H54     22.049298   16.137467   22.982926 H          1 MOL1         0.0783
     115    O28     23.753176   15.508889   23.996208 O.3        1 MOL1        -0.5519
     116    H55     24.256505   16.353770   23.888310 H          1 MOL1         0.3769
     117    C34     23.639411   15.745677   21.574914 C.3        1 MOL1         0.1018
     118    H56     24.604006   15.221668   21.599725 H          1 MOL1         0.0783
     119    C35     22.859260   15.356284   20.288240 C.3        1 MOL1         0.1043
     120    H57     22.032955   16.067379   20.155361 H          1 MOL1         0.0783
     121    O29     22.331883   14.011872   20.413122 O.3        1 MOL1        -0.3740
     122    C36     23.727447   15.398461   19.011199 C.3        1 MOL1         0.0138
     123    H58     24.073775   16.426600   18.844330 H          1 MOL1         0.0794
     124    H59     23.103377   15.120500   18.151393 H          1 MOL1         0.0794
     125    O30     24.845059   14.511786   19.119213 O.3        1 MOL1        -0.5486
     126    H60     24.470754   13.623294   19.311913 H          1 MOL1         0.3769
     127    C1      19.475721   19.380447   24.330519 C.2        1 MOL1         0.6075
     128    O1      18.294086   19.326486   24.614769 O.co2      1 MOL1        -0.6830
     129    O2      20.212030   20.279817   24.689929 O.co2      1 MOL1        -0.6830
     130    C2      20.067702   18.241693   23.502890 C.3        1 MOL1        -0.2050
     131    H1      19.301518   17.470882   23.370159 H          1 MOL1         0.0710
     132    H2      20.864804   17.794746   24.107204 H          1 MOL1         0.0710
     133    C3      20.641579   18.659370   22.122817 C.3        1 MOL1        -0.1947
     134    H3      21.396417   19.440537   22.267872 H          1 MOL1         0.0712
     135    H4      21.160308   17.800573   21.681927 H          1 MOL1         0.0712
     136    C4      19.565804   19.144054   21.128735 C.3        1 MOL1        -0.1921
     137    H5      19.028132   20.006708   21.546190 H          1 MOL1         0.0712
     138    H6      18.827689   18.347855   20.972913 H          1 MOL1         0.0712
     139    C5      20.186785   19.528552   19.771344 C.3        1 MOL1        -0.2936
     140    H7      19.407716   19.822941   19.057736 H          1 MOL1         0.0724
     141    H8      20.738608   18.683945   19.339508 H          1 MOL1         0.0724
     142    H9      20.878695   20.371738   19.887397 H          1 MOL1         0.0724
@<TRIPOS>BOND
    1     1     2    1
    2     1     3    1
    3     1     4    1
    4     4     5    1
    5     4     6    1
    6     6     7    1
    7     4     8    1
    8     8     9    1
    9     8    10    1
   10    10    11    1
   11     8    12    1
   12    12    13    1
   13    12    14    1
   14    14    15    1
   15     1    16    1
   16    14    16    1
   17    14    17    1
   18    17    18    1
   19    17    19    1
   20    17    20    1
   21    20    21    1
   22    22    23    1
   23    22    24    1
   24    22    25    1
   25    25    26    1
   26    25    27    1
   27    27    28    1
   28    25    29    1
   29    29    30    1
   30    29    31    1
   31    31    32    1
   32     3    33    1
   33    29    33    1
   34    33    34    1
   35    33    35    1
   36    35    36    1
   37    22    37    1
   38    35    37    1
   39    35    38    1
   40    38    39    1
   41    38    40    1
   42    38    41    1
   43    41    42    1
   44    43    44    1
   45    43    45    1
   46    43    46    1
   47    46    47    1
   48    46    48    1
   49    48    49    1
   50    46    50    1
   51    50    51    1
   52    50    52    1
   53    52    53    1
   54    24    54    1
   55    50    54    1
   56    54    55    1
   57    54    56    1
   58    56    57    1
   59    43    58    1
   60    56    58    1
   61    56    59    1
   62    59    60    1
   63    59    61    1
   64    59    62    1
   65    62    63    1
   66    64    65    1
   67    64    66    1
   68    64    67    1
   69    67    68    1
   70    67    69    1
   71    69    70    1
   72    67    71    1
   73    71    72    1
   74    71    73    1
   75    73    74    1
   76    45    75    1
   77    71    75    1
   78    75    76    1
   79    75    77    1
   80    77    78    1
   81    64    79    1
   82    77    79    1
   83    77    80    1
   84    80    81    1
   85    80    82    1
   86    80    83    1
   87    83    84    1
   88    85    86    1
   89    85    87    1
   90    85    88    1
   91    88    89    1
   92    88    90    1
   93    90    91    1
   94    88    92    1
   95    92    93    1
   96    92    94    1
   97    94    95    1
   98    66    96    1
   99    92    96    1
  100    96    97    1
  101    96    98    1
  102    98    99    1
  103    85   100    1
  104    98   100    1
  105    98   101    1
  106   101   102    1
  107   101   103    1
  108   101   104    1
  109   104   105    1
  110   106   107    1
  111    12   108    1
  112   106   108    1
  113   106   109    1
  114   109   110    1
  115   109   111    1
  116   111   112    1
  117   109   113    1
  118   113   114    1
  119   113   115    1
  120   115   116    1
  121    87   117    1
  122   113   117    1
  123   117   118    1
  124   117   119    1
  125   119   120    1
  126   106   121    1
  127   119   121    1
  128   119   122    1
  129   122   123    1
  130   122   124    1
  131   122   125    1
  132   125   126    1
  133   127   128    1
  134   127   129    2
  135   127   130    1
  136   130   131    1
  137   130   132    1
  138   130   133    1
  139   133   134    1
  140   133   135    1
  141   133   136    1
  142   136   137    1
  143   136   138    1
  144   136   139    1
  145   139   140    1
  146   139   141    1
  147   139   142    1
@<TRIPOS>SUBSTRUCTURE
       1 MOL1            1 RESIDUE      1      MOL     
       2 MOL1          142 RESIDUE      1      MOL     
@<SCITEGIC>MOL_PROPERTY
VM2 Rank
SciTegic.value.IntegerValue
7

@<SCITEGIC>MOL_PROPERTY
Conf_Id
SciTegic.value.IntegerValue
7307

@<SCITEGIC>MOL_PROPERTY
Probability
SciTegic.value.DoubleValue
0.91

@<SCITEGIC>MOL_PROPERTY
Sum Probability
SciTegic.value.DoubleValue
8.02

@<SCITEGIC>MOL_PROPERTY
Delta G
SciTegic.value.DoubleValue
0.208

@<SCITEGIC>MOL_PROPERTY
G
SciTegic.value.DoubleValue
482.077

@<SCITEGIC>MOL_PROPERTY
E
SciTegic.value.DoubleValue
296.290

@<SCITEGIC>MOL_PROPERTY
-TS
SciTegic.value.DoubleValue
185.787

@<SCITEGIC>MOL_PROPERTY
U+W
SciTegic.value.DoubleValue
171.096

@<SCITEGIC>MOL_PROPERTY
U
SciTegic.value.DoubleValue
233.533

@<SCITEGIC>MOL_PROPERTY
W
SciTegic.value.DoubleValue
-62.431

@<SCITEGIC>MOL_PROPERTY
W(PB)
SciTegic.value.DoubleValue
-68.484

@<SCITEGIC>MOL_PROPERTY
W(SA)
SciTegic.value.DoubleValue
6.053

@<SCITEGIC>MOL_PROPERTY
Valence
SciTegic.value.DoubleValue
150.454

@<SCITEGIC>MOL_PROPERTY
Coulomb
SciTegic.value.DoubleValue
103.385

@<SCITEGIC>MOL_PROPERTY
VdW
SciTegic.value.DoubleValue
-20.307

@<SCITEGIC>MOL_PROPERTY
VdW6
SciTegic.value.DoubleValue
-181.345

@<SCITEGIC>MOL_PROPERTY
VdW12
SciTegic.value.DoubleValue
161.038

@<SCITEGIC>MOL_PROPERTY
Bond
SciTegic.value.DoubleValue
5.113

@<SCITEGIC>MOL_PROPERTY
Angle
SciTegic.value.DoubleValue
12.285

@<SCITEGIC>MOL_PROPERTY
Pdih
SciTegic.value.DoubleValue
133.054

@<SCITEGIC>MOL_PROPERTY
Idih
SciTegic.value.DoubleValue
0.001

@<SCITEGIC>MOL_PROPERTY
Tether
SciTegic.value.DoubleValue
0.000

@<TRIPOS>MOLECULE
CD_guest-s18_vm2_rndm.mol2 : vm2 host+ligand conformer 8
         142         147           2
SMALL
USER_CHARGES
 
@<TRIPOS>ATOM
       1    C1      16.369980   15.247942   20.757785 C.3        1 MOL1         0.2972
       2    H1      15.323744   15.110049   20.456328 H          1 MOL1         0.0751
       3    O1      16.654041   16.631297   21.045811 O.3        1 MOL1        -0.3740
       4    C2      16.709482   14.371900   21.995794 C.3        1 MOL1         0.1003
       5    H2      16.533126   13.327465   21.708791 H          1 MOL1         0.0783
       6    O2      15.855111   14.695246   23.104414 O.3        1 MOL1        -0.5519
       7    H3      16.088172   15.614272   23.388708 H          1 MOL1         0.3769
       8    C3      18.208561   14.509333   22.374939 C.3        1 MOL1         0.1053
       9    H4      18.369565   15.525955   22.756092 H          1 MOL1         0.0783
      10    O3      18.567558   13.547808   23.375564 O.3        1 MOL1        -0.5519
      11    H5      19.515651   13.714014   23.602997 H          1 MOL1         0.3769
      12    C4      19.124620   14.302518   21.141701 C.3        1 MOL1         0.1018
      13    H6      19.136544   13.235161   20.883717 H          1 MOL1         0.0783
      14    C5      18.657452   15.103519   19.899558 C.3        1 MOL1         0.1043
      15    H7      18.840911   16.172765   20.069855 H          1 MOL1         0.0783
      16    O4      17.246853   14.847201   19.684209 O.3        1 MOL1        -0.3740
      17    C6      19.401571   14.678356   18.616428 C.3        1 MOL1         0.0138
      18    H8      19.197954   13.618482   18.413584 H          1 MOL1         0.0794
      19    H9      20.482355   14.788229   18.767833 H          1 MOL1         0.0794
      20    O5      18.981909   15.488213   17.517016 O.3        1 MOL1        -0.5486
      21    H10     17.998952   15.486969   17.540532 H          1 MOL1         0.3769
      22    C7      14.872396   20.290684   21.729673 C.3        1 MOL1         0.2972
      23    H11     14.212670   21.136516   21.960800 H          1 MOL1         0.0751
      24    O6      16.105012   20.725334   21.117301 O.3        1 MOL1        -0.3740
      25    C8      15.202551   19.492622   23.017229 C.3        1 MOL1         0.1003
      26    H12     14.258397   19.083279   23.398792 H          1 MOL1         0.0783
      27    O7      15.769318   20.356971   24.016258 O.3        1 MOL1        -0.5519
      28    H13     16.660228   19.988371   24.262641 H          1 MOL1         0.3769
      29    C9      16.134589   18.300162   22.683289 C.3        1 MOL1         0.1053
      30    H14     17.095926   18.709081   22.350842 H          1 MOL1         0.0783
      31    O8      16.337900   17.485086   23.844195 O.3        1 MOL1        -0.5519
      32    H15     17.001292   17.982680   24.390562 H          1 MOL1         0.3769
      33    C10     15.561070   17.435551   21.531742 C.3        1 MOL1         0.1018
      34    H16     14.743633   16.820312   21.930101 H          1 MOL1         0.0783
      35    C11     15.047842   18.288477   20.335810 C.3        1 MOL1         0.1043
      36    H17     15.919928   18.691723   19.803841 H          1 MOL1         0.0783
      37    O9      14.223489   19.379874   20.816929 O.3        1 MOL1        -0.3740
      38    C12     14.212954   17.486201   19.312830 C.3        1 MOL1         0.0138
      39    H18     14.857100   16.737896   18.832735 H          1 MOL1         0.0794
      40    H19     13.867940   18.170417   18.526027 H          1 MOL1         0.0794
      41    O10     13.096641   16.848064   19.939735 O.3        1 MOL1        -0.5486
      42    H20     12.574879   17.563316   20.367181 H          1 MOL1         0.3769
      43    C13     18.428283   24.065731   20.496968 C.3        1 MOL1         0.2972
      44    H21     18.877293   25.028762   20.222116 H          1 MOL1         0.0751
      45    O11     19.440727   23.094865   20.840481 O.3        1 MOL1        -0.3740
      46    C14     17.414580   24.234439   21.661024 C.3        1 MOL1         0.1003
      47    H22     16.606319   24.877452   21.289896 H          1 MOL1         0.0783
      48    O12     18.022281   24.875479   22.792859 O.3        1 MOL1        -0.5519
      49    H23     18.609561   24.199569   23.214292 H          1 MOL1         0.3769
      50    C15     16.787615   22.866614   22.043092 C.3        1 MOL1         0.1053
      51    H24     17.577117   22.241313   22.482816 H          1 MOL1         0.0783
      52    O13     15.735347   23.061703   22.995617 O.3        1 MOL1        -0.5519
      53    H25     15.659358   22.210342   23.491921 H          1 MOL1         0.3769
      54    C16     16.225780   22.125316   20.795579 C.3        1 MOL1         0.1018
      55    H26     15.254999   22.556307   20.517281 H          1 MOL1         0.0783
      56    C17     17.173334   22.189846   19.565842 C.3        1 MOL1         0.1043
      57    H27     18.006773   21.497145   19.738999 H          1 MOL1         0.0783
      58    O14     17.685208   23.533762   19.381991 O.3        1 MOL1        -0.3740
      59    C18     16.480362   21.765324   18.252250 C.3        1 MOL1         0.0138
      60    H28     16.097535   20.742104   18.363509 H          1 MOL1         0.0794
      61    H29     17.228181   21.752031   17.448177 H          1 MOL1         0.0794
      62    O15     15.412825   22.658876   17.921756 O.3        1 MOL1        -0.5486
      63    H30     15.803888   23.561081   17.925265 H          1 MOL1         0.3769
      64    C19     23.327765   22.640519   22.201785 C.3        1 MOL1         0.2972
      65    H31     24.334539   22.776530   22.615887 H          1 MOL1         0.0751
      66    O16     23.186728   21.355803   21.559063 O.3        1 MOL1        -0.3740
      67    C20     22.262158   22.763709   23.321660 C.3        1 MOL1         0.1003
      68    H32     22.344668   23.775776   23.738193 H          1 MOL1         0.0783
      69    O17     22.517890   21.812386   24.368461 O.3        1 MOL1        -0.5519
      70    H33     21.673660   21.311169   24.529622 H          1 MOL1         0.3769
      71    C21     20.833849   22.612792   22.737732 C.3        1 MOL1         0.1053
      72    H34     20.715422   21.585681   22.371065 H          1 MOL1         0.0783
      73    O18     19.862466   22.877817   23.757291 O.3        1 MOL1        -0.5519
      74    H35     19.801652   22.039050   24.288507 H          1 MOL1         0.3769
      75    C22     20.609912   23.569192   21.538161 C.3        1 MOL1         0.1018
      76    H36     20.477014   24.590277   21.918466 H          1 MOL1         0.0783
      77    C23     21.787408   23.536857   20.524084 C.3        1 MOL1         0.1043
      78    H37     21.755831   22.578133   19.990463 H          1 MOL1         0.0783
      79    O19     23.051649   23.663892   21.221468 O.3        1 MOL1        -0.3740
      80    C24     21.717007   24.660541   19.466122 C.3        1 MOL1         0.0138
      81    H38     20.818587   24.516869   18.851313 H          1 MOL1         0.0794
      82    H39     22.585606   24.572660   18.799873 H          1 MOL1         0.0794
      83    O20     21.692255   25.951693   20.081648 O.3        1 MOL1        -0.5486
      84    H40     22.497444   26.003951   20.643358 H          1 MOL1         0.3769
      85    C25     25.170723   17.692749   21.401169 C.3        1 MOL1         0.2972
      86    H41     25.899122   16.884805   21.257474 H          1 MOL1         0.0751
      87    O21     23.844382   17.185650   21.644715 O.3        1 MOL1        -0.3740
      88    C26     25.572683   18.581453   22.603813 C.3        1 MOL1         0.1003
      89    H42     26.559474   19.007682   22.380921 H          1 MOL1         0.0783
      90    O22     25.651860   17.816930   23.815091 O.3        1 MOL1        -0.5519
      91    H43     25.767483   18.489410   24.523676 H          1 MOL1         0.3769
      92    C27     24.577493   19.753106   22.786709 C.3        1 MOL1         0.1053
      93    H44     23.611290   19.331439   23.096108 H          1 MOL1         0.0783
      94    O23     25.077641   20.619617   23.811829 O.3        1 MOL1        -0.5519
      95    H45     24.288058   21.104828   24.158706 H          1 MOL1         0.3769
      96    C28     24.366116   20.531211   21.454734 C.3        1 MOL1         0.1018
      97    H46     25.254369   21.138912   21.237103 H          1 MOL1         0.0783
      98    C29     24.111352   19.576811   20.256875 C.3        1 MOL1         0.1043
      99    H47     23.112778   19.131749   20.360880 H          1 MOL1         0.0783
     100    O24     25.126664   18.543101   20.236317 O.3        1 MOL1        -0.3740
     101    C30     24.174487   20.317241   18.904696 C.3        1 MOL1         0.0138
     102    H48     25.170696   20.762563   18.781510 H          1 MOL1         0.0794
     103    H49     23.440412   21.133825   18.905053 H          1 MOL1         0.0794
     104    O25     23.896278   19.410630   17.835819 O.3        1 MOL1        -0.5486
     105    H50     24.505731   18.650704   17.962990 H          1 MOL1         0.3769
     106    C31     21.482045   13.797668   21.560070 C.3        1 MOL1         0.2972
     107    H51     21.084106   12.775968   21.521251 H          1 MOL1         0.0751
     108    O26     20.429893   14.783032   21.515254 O.3        1 MOL1        -0.3740
     109    C32     22.294932   13.991270   22.863819 C.3        1 MOL1         0.1003
     110    H52     23.117753   13.264757   22.847411 H          1 MOL1         0.0783
     111    O27     21.481857   13.756566   24.022000 O.3        1 MOL1        -0.5519
     112    H53     22.031057   14.066560   24.776815 H          1 MOL1         0.3769
     113    C33     22.912867   15.405945   22.929319 C.3        1 MOL1         0.1053
     114    H54     22.095009   16.126746   23.051666 H          1 MOL1         0.0783
     115    O28     23.804825   15.486096   24.047648 O.3        1 MOL1        -0.5519
     116    H55     24.293936   16.341726   23.959655 H          1 MOL1         0.3769
     117    C34     23.678712   15.756456   21.629510 C.3        1 MOL1         0.1018
     118    H56     24.640833   15.227475   21.636487 H          1 MOL1         0.0783
     119    C35     22.885368   15.390824   20.343906 C.3        1 MOL1         0.1043
     120    H57     22.053184   16.099550   20.235774 H          1 MOL1         0.0783
     121    O29     22.369196   14.039254   20.447758 O.3        1 MOL1        -0.3740
     122    C36     23.736093   15.469194   19.057302 C.3        1 MOL1         0.0138
     123    H58     24.071541   16.503818   18.911975 H          1 MOL1         0.0794
     124    H59     23.102703   15.208233   18.198919 H          1 MOL1         0.0794
     125    O30     24.862204   14.589683   19.129501 O.3        1 MOL1        -0.5486
     126    H60     24.498662   13.693956   19.308190 H          1 MOL1         0.3769
     127    C1      19.470112   19.381980   24.375209 C.2        1 MOL1         0.6075
     128    O1      20.188735   20.298642   24.726941 O.co2      1 MOL1        -0.6830
     129    O2      18.286425   19.314198   24.648162 O.co2      1 MOL1        -0.6830
     130    C2      20.086927   18.241748   23.567864 C.3        1 MOL1        -0.2050
     131    H1      19.332359   17.459407   23.435170 H          1 MOL1         0.0710
     132    H2      20.883770   17.811592   24.184732 H          1 MOL1         0.0710
     133    C3      20.669208   18.652625   22.189529 C.3        1 MOL1        -0.1947
     134    H3      21.416756   19.440874   22.333450 H          1 MOL1         0.0712
     135    H4      21.198272   17.794754   21.759518 H          1 MOL1         0.0712
     136    C4      19.597804   19.121050   21.183219 C.3        1 MOL1        -0.1921
     137    H5      19.051610   19.984604   21.587316 H          1 MOL1         0.0712
     138    H6      18.866017   18.318818   21.029226 H          1 MOL1         0.0712
     139    C5      20.226899   19.494944   19.826753 C.3        1 MOL1        -0.2936
     140    H7      19.452669   19.781806   19.105025 H          1 MOL1         0.0724
     141    H8      20.782250   18.647369   19.404433 H          1 MOL1         0.0724
     142    H9      20.919117   20.338477   19.937899 H          1 MOL1         0.0724
@<TRIPOS>BOND
    1     1     2    1
    2     1     3    1
    3     1     4    1
    4     4     5    1
    5     4     6    1
    6     6     7    1
    7     4     8    1
    8     8     9    1
    9     8    10    1
   10    10    11    1
   11     8    12    1
   12    12    13    1
   13    12    14    1
   14    14    15    1
   15     1    16    1
   16    14    16    1
   17    14    17    1
   18    17    18    1
   19    17    19    1
   20    17    20    1
   21    20    21    1
   22    22    23    1
   23    22    24    1
   24    22    25    1
   25    25    26    1
   26    25    27    1
   27    27    28    1
   28    25    29    1
   29    29    30    1
   30    29    31    1
   31    31    32    1
   32     3    33    1
   33    29    33    1
   34    33    34    1
   35    33    35    1
   36    35    36    1
   37    22    37    1
   38    35    37    1
   39    35    38    1
   40    38    39    1
   41    38    40    1
   42    38    41    1
   43    41    42    1
   44    43    44    1
   45    43    45    1
   46    43    46    1
   47    46    47    1
   48    46    48    1
   49    48    49    1
   50    46    50    1
   51    50    51    1
   52    50    52    1
   53    52    53    1
   54    24    54    1
   55    50    54    1
   56    54    55    1
   57    54    56    1
   58    56    57    1
   59    43    58    1
   60    56    58    1
   61    56    59    1
   62    59    60    1
   63    59    61    1
   64    59    62    1
   65    62    63    1
   66    64    65    1
   67    64    66    1
   68    64    67    1
   69    67    68    1
   70    67    69    1
   71    69    70    1
   72    67    71    1
   73    71    72    1
   74    71    73    1
   75    73    74    1
   76    45    75    1
   77    71    75    1
   78    75    76    1
   79    75    77    1
   80    77    78    1
   81    64    79    1
   82    77    79    1
   83    77    80    1
   84    80    81    1
   85    80    82    1
   86    80    83    1
   87    83    84    1
   88    85    86    1
   89    85    87    1
   90    85    88    1
   91    88    89    1
   92    88    90    1
   93    90    91    1
   94    88    92    1
   95    92    93    1
   96    92    94    1
   97    94    95    1
   98    66    96    1
   99    92    96    1
  100    96    97    1
  101    96    98    1
  102    98    99    1
  103    85   100    1
  104    98   100    1
  105    98   101    1
  106   101   102    1
  107   101   103    1
  108   101   104    1
  109   104   105    1
  110   106   107    1
  111    12   108    1
  112   106   108    1
  113   106   109    1
  114   109   110    1
  115   109   111    1
  116   111   112    1
  117   109   113    1
  118   113   114    1
  119   113   115    1
  120   115   116    1
  121    87   117    1
  122   113   117    1
  123   117   118    1
  124   117   119    1
  125   119   120    1
  126   106   121    1
  127   119   121    1
  128   119   122    1
  129   122   123    1
  130   122   124    1
  131   122   125    1
  132   125   126    1
  133   127   128    1
  134   127   129    2
  135   127   130    1
  136   130   131    1
  137   130   132    1
  138   130   133    1
  139   133   134    1
  140   133   135    1
  141   133   136    1
  142   136   137    1
  143   136   138    1
  144   136   139    1
  145   139   140    1
  146   139   141    1
  147   139   142    1
@<TRIPOS>SUBSTRUCTURE
       1 MOL1            1 RESIDUE      1      MOL     
       2 MOL1          142 RESIDUE      1      MOL     
@<SCITEGIC>MOL_PROPERTY
VM2 Rank
SciTegic.value.IntegerValue
8

@<SCITEGIC>MOL_PROPERTY
Conf_Id
SciTegic.value.IntegerValue
19670

@<SCITEGIC>MOL_PROPERTY
Probability
SciTegic.value.DoubleValue
0.86

@<SCITEGIC>MOL_PROPERTY
Sum Probability
SciTegic.value.DoubleValue
8.88

@<SCITEGIC>MOL_PROPERTY
Delta G
SciTegic.value.DoubleValue
0.245

@<SCITEGIC>MOL_PROPERTY
G
SciTegic.value.DoubleValue
482.113

@<SCITEGIC>MOL_PROPERTY
E
SciTegic.value.DoubleValue
296.676

@<SCITEGIC>MOL_PROPERTY
-TS
SciTegic.value.DoubleValue
185.438

@<SCITEGIC>MOL_PROPERTY
U+W
SciTegic.value.DoubleValue
171.482

@<SCITEGIC>MOL_PROPERTY
U
SciTegic.value.DoubleValue
235.111

@<SCITEGIC>MOL_PROPERTY
W
SciTegic.value.DoubleValue
-63.629

@<SCITEGIC>MOL_PROPERTY
W(PB)
SciTegic.value.DoubleValue
-69.626

@<SCITEGIC>MOL_PROPERTY
W(SA)
SciTegic.value.DoubleValue
5.996

@<SCITEGIC>MOL_PROPERTY
Valence
SciTegic.value.DoubleValue
150.863

@<SCITEGIC>MOL_PROPERTY
Coulomb
SciTegic.value.DoubleValue
105.167

@<SCITEGIC>MOL_PROPERTY
VdW
SciTegic.value.DoubleValue
-20.920

@<SCITEGIC>MOL_PROPERTY
VdW6
SciTegic.value.DoubleValue
-180.781

@<SCITEGIC>MOL_PROPERTY
VdW12
SciTegic.value.DoubleValue
159.861

@<SCITEGIC>MOL_PROPERTY
Bond
SciTegic.value.DoubleValue
5.069

@<SCITEGIC>MOL_PROPERTY
Angle
SciTegic.value.DoubleValue
12.125

@<SCITEGIC>MOL_PROPERTY
Pdih
SciTegic.value.DoubleValue
133.668

@<SCITEGIC>MOL_PROPERTY
Idih
SciTegic.value.DoubleValue
0.001

@<SCITEGIC>MOL_PROPERTY
Tether
SciTegic.value.DoubleValue
0.000

