@<TRIPOS>MOLECULE
CD_guest-s15_vm2_rndm.mol2 : vm2 host+ligand conformer 1
         155         160           2
SMALL
USER_CHARGES
 
@<TRIPOS>ATOM
       1    C1      16.348826   15.098812   21.101861 C.3        1 MOL1         0.2972
       2    H1      15.297336   14.914388   20.848938 H          1 MOL1         0.0751
       3    O1      16.602571   16.492448   21.376371 O.3        1 MOL1        -0.3740
       4    C2      16.756957   14.270762   22.346989 C.3        1 MOL1         0.1003
       5    H2      16.625401   13.210954   22.092765 H          1 MOL1         0.0783
       6    O2      15.931187   14.583851   23.478617 O.3        1 MOL1        -0.5519
       7    H3      15.771941   15.561997   23.470148 H          1 MOL1         0.3769
       8    C3      18.249695   14.494682   22.683643 C.3        1 MOL1         0.1053
       9    H4      18.375962   15.540767   22.993268 H          1 MOL1         0.0783
      10    O3      18.634317   13.625280   23.753193 O.3        1 MOL1        -0.5519
      11    H5      17.884160   13.661211   24.389193 H          1 MOL1         0.3769
      12    C4      19.142607   14.246907   21.441203 C.3        1 MOL1         0.1018
      13    H6      19.200684   13.170167   21.232452 H          1 MOL1         0.0783
      14    C5      18.614903   14.971603   20.174883 C.3        1 MOL1         0.1043
      15    H7      18.779978   16.047548   20.294897 H          1 MOL1         0.0783
      16    O4      17.202305   14.689888   20.013921 O.3        1 MOL1        -0.3740
      17    C6      19.343885   14.501570   18.896199 C.3        1 MOL1         0.0138
      18    H8      18.949348   13.520026   18.601141 H          1 MOL1         0.0794
      19    H9      20.411062   14.372228   19.116106 H          1 MOL1         0.0794
      20    O5      19.187611   15.447837   17.833484 O.3        1 MOL1        -0.5486
      21    H10     19.575272   15.038360   17.029604 H          1 MOL1         0.3769
      22    C7      14.708136   20.229275   21.182394 C.3        1 MOL1         0.2972
      23    H11     13.950863   21.012769   21.054135 H          1 MOL1         0.0751
      24    O6      16.025240   20.780381   21.376263 O.3        1 MOL1        -0.3740
      25    C8      14.370439   19.357625   22.418449 C.3        1 MOL1         0.1003
      26    H12     13.376109   18.923719   22.250651 H          1 MOL1         0.0783
      27    O7      14.337988   20.148947   23.616908 O.3        1 MOL1        -0.5519
      28    H13     15.022505   20.858712   23.523921 H          1 MOL1         0.3769
      29    C9      15.376815   18.190644   22.563835 C.3        1 MOL1         0.1053
      30    H14     16.363980   18.611099   22.800452 H          1 MOL1         0.0783
      31    O8      14.946079   17.332386   23.623526 O.3        1 MOL1        -0.5519
      32    H15     14.694087   17.941030   24.354025 H          1 MOL1         0.3769
      33    C10     15.487296   17.394383   21.239345 C.3        1 MOL1         0.1018
      34    H16     14.543888   16.858514   21.070711 H          1 MOL1         0.0783
      35    C11     15.763159   18.338662   20.038354 C.3        1 MOL1         0.1043
      36    H17     16.758206   18.785454   20.157281 H          1 MOL1         0.0783
      37    O9      14.744905   19.370422   20.022522 O.3        1 MOL1        -0.3740
      38    C12     15.714868   17.617321   18.675085 C.3        1 MOL1         0.0138
      39    H18     14.721555   17.171110   18.534022 H          1 MOL1         0.0794
      40    H19     16.452205   16.803879   18.666646 H          1 MOL1         0.0794
      41    O10     16.003101   18.543941   17.624670 O.3        1 MOL1        -0.5486
      42    H20     15.374265   19.289672   17.741778 H          1 MOL1         0.3769
      43    C13     18.328343   24.181377   21.113154 C.3        1 MOL1         0.2972
      44    H21     18.762429   25.180249   20.975659 H          1 MOL1         0.0751
      45    O11     19.350131   23.167080   21.223646 O.3        1 MOL1        -0.3740
      46    C14     17.406151   24.132154   22.359181 C.3        1 MOL1         0.1003
      47    H22     16.564355   24.809490   22.164700 H          1 MOL1         0.0783
      48    O12     18.078575   24.566828   23.549576 O.3        1 MOL1        -0.5519
      49    H23     18.815332   23.926411   23.715814 H          1 MOL1         0.3769
      50    C15     16.836758   22.704518   22.535999 C.3        1 MOL1         0.1053
      51    H24     17.670786   22.027625   22.768113 H          1 MOL1         0.0783
      52    O13     15.893654   22.694018   23.611622 O.3        1 MOL1        -0.5519
      53    H25     16.317329   23.213508   24.330997 H          1 MOL1         0.3769
      54    C16     16.153091   22.208364   21.235810 C.3        1 MOL1         0.1018
      55    H26     15.178730   22.706185   21.143453 H          1 MOL1         0.0783
      56    C17     16.992945   22.485520   19.956588 C.3        1 MOL1         0.1043
      57    H27     17.827240   21.776732   19.922063 H          1 MOL1         0.0783
      58    O14     17.498342   23.844432   19.982326 O.3        1 MOL1        -0.3740
      59    C18     16.172453   22.322329   18.660881 C.3        1 MOL1         0.0138
      60    H28     15.356528   23.057202   18.651544 H          1 MOL1         0.0794
      61    H29     15.724112   21.321996   18.637845 H          1 MOL1         0.0794
      62    O15     17.018680   22.497098   17.523428 O.3        1 MOL1        -0.5486
      63    H30     17.488499   23.348435   17.663471 H          1 MOL1         0.3769
      64    C19     23.369953   22.538861   21.968049 C.3        1 MOL1         0.2972
      65    H31     24.431257   22.624944   22.232083 H          1 MOL1         0.0751
      66    O16     23.089153   21.304824   21.275571 O.3        1 MOL1        -0.3740
      67    C20     22.486233   22.605961   23.240224 C.3        1 MOL1         0.1003
      68    H32     22.675354   23.577003   23.716165 H          1 MOL1         0.0783
      69    O17     22.805186   21.555091   24.166960 O.3        1 MOL1        -0.5519
      70    H33     23.726297   21.262146   23.966039 H          1 MOL1         0.3769
      71    C21     20.989198   22.532164   22.865583 C.3        1 MOL1         0.1053
      72    H34     20.797104   21.536068   22.453551 H          1 MOL1         0.0783
      73    O18     20.208755   22.718886   24.048723 O.3        1 MOL1        -0.5519
      74    H35     20.653896   22.158964   24.724662 H          1 MOL1         0.3769
      75    C22     20.613841   23.574851   21.782172 C.3        1 MOL1         0.1018
      76    H36     20.558115   24.567340   22.248932 H          1 MOL1         0.0783
      77    C23     21.629252   23.594868   20.605170 C.3        1 MOL1         0.1043
      78    H37     21.487361   22.681218   20.012584 H          1 MOL1         0.0783
      79    O19     22.985725   23.636115   21.112316 O.3        1 MOL1        -0.3740
      80    C24     21.441105   24.799845   19.656763 C.3        1 MOL1         0.0138
      81    H38     20.457787   24.724443   19.173678 H          1 MOL1         0.0794
      82    H39     22.199250   24.747686   18.863913 H          1 MOL1         0.0794
      83    O20     21.547816   26.037798   20.365683 O.3        1 MOL1        -0.5486
      84    H40     22.433261   26.035446   20.792903 H          1 MOL1         0.3769
      85    C25     24.943393   17.631151   20.690246 C.3        1 MOL1         0.2972
      86    H41     25.597973   16.801024   20.394501 H          1 MOL1         0.0751
      87    O21     23.664597   17.161561   21.159582 O.3        1 MOL1        -0.3740
      88    C26     25.596004   18.495614   21.798392 C.3        1 MOL1         0.1003
      89    H42     26.513815   18.923398   21.374248 H          1 MOL1         0.0783
      90    O22     25.941453   17.715318   22.953021 O.3        1 MOL1        -0.5519
      91    H43     25.108897   17.292265   23.284116 H          1 MOL1         0.3769
      92    C27     24.663524   19.667755   22.191473 C.3        1 MOL1         0.1053
      93    H44     23.763579   19.246865   22.661828 H          1 MOL1         0.0783
      94    O23     25.356846   20.500147   23.128224 O.3        1 MOL1        -0.5519
      95    H45     25.846077   19.873125   23.708882 H          1 MOL1         0.3769
      96    C28     24.221266   20.478071   20.936849 C.3        1 MOL1         0.1018
      97    H46     25.060588   21.087377   20.576008 H          1 MOL1         0.0783
      98    C29     23.740557   19.557928   19.781771 C.3        1 MOL1         0.1043
      99    H47     22.765709   19.131408   20.050563 H          1 MOL1         0.0783
     100    O24     24.707460   18.500762   19.563500 O.3        1 MOL1        -0.3740
     101    C30     23.579771   20.327433   18.454167 C.3        1 MOL1         0.0138
     102    H48     24.561555   20.693425   18.125463 H          1 MOL1         0.0794
     103    H49     22.934795   21.200899   18.616642 H          1 MOL1         0.0794
     104    O25     23.003415   19.475813   17.462473 O.3        1 MOL1        -0.5486
     105    H50     23.558670   18.666063   17.443877 H          1 MOL1         0.3769
     106    C31     21.450621   13.874931   22.157370 C.3        1 MOL1         0.2972
     107    H51     21.023553   12.902976   22.436526 H          1 MOL1         0.0751
     108    O26     20.434325   14.806591   21.735973 O.3        1 MOL1        -0.3740
     109    C32     22.211829   14.488059   23.356745 C.3        1 MOL1         0.1003
     110    H52     23.043790   13.813334   23.597046 H          1 MOL1         0.0783
     111    O27     21.357176   14.610485   24.505010 O.3        1 MOL1        -0.5519
     112    H53     20.444401   14.361581   24.216951 H          1 MOL1         0.3769
     113    C33     22.804328   15.864511   22.976821 C.3        1 MOL1         0.1053
     114    H54     21.970633   16.561272   22.839535 H          1 MOL1         0.0783
     115    O28     23.635337   16.329172   24.043909 O.3        1 MOL1        -0.5519
     116    H55     23.107043   16.170541   24.858330 H          1 MOL1         0.3769
     117    C34     23.610701   15.810016   21.652396 C.3        1 MOL1         0.1018
     118    H56     24.610063   15.408291   21.866883 H          1 MOL1         0.0783
     119    C35     22.922042   14.967716   20.539237 C.3        1 MOL1         0.1043
     120    H57     22.097613   15.563883   20.125914 H          1 MOL1         0.0783
     121    O29     22.398017   13.728367   21.079820 O.3        1 MOL1        -0.3740
     122    C36     23.863142   14.611715   19.367159 C.3        1 MOL1         0.0138
     123    H58     24.173793   15.536561   18.863342 H          1 MOL1         0.0794
     124    H59     23.304477   14.013819   18.634666 H          1 MOL1         0.0794
     125    O30     25.009966   13.890272   19.825720 O.3        1 MOL1        -0.5486
     126    H60     24.667726   13.091667   20.285823 H          1 MOL1         0.3769
     127    C1      19.534118   17.984808   24.439468 C.3        1 MOL1        -0.2426
     128    H1      20.195979   17.112895   24.372398 H          1 MOL1         0.0959
     129    H2      19.686426   18.447660   25.422823 H          1 MOL1         0.0959
     130    H3      18.495865   17.631225   24.390529 H          1 MOL1         0.0959
     131    C2      19.829015   18.995795   23.312323 C.3        1 MOL1        -0.1410
     132    H4      20.857266   19.370707   23.415869 H          1 MOL1         0.0948
     133    H5      19.159259   19.860638   23.420286 H          1 MOL1         0.0948
     134    C3      19.644164   18.361917   21.917757 C.3        1 MOL1        -0.1435
     135    H6      20.384124   17.567386   21.767602 H          1 MOL1         0.0948
     136    H7      18.657938   17.888350   21.867246 H          1 MOL1         0.0948
     137    C4      19.762823   19.397180   20.781946 C.3        1 MOL1        -0.1435
     138    H8      20.711237   19.941780   20.868780 H          1 MOL1         0.0948
     139    H9      18.958724   20.135732   20.889858 H          1 MOL1         0.0948
     140    C5      19.687819   18.728901   19.392081 C.3        1 MOL1        -0.1435
     141    H10     20.572302   18.093480   19.242866 H          1 MOL1         0.0948
     142    H11     18.811643   18.070878   19.348450 H          1 MOL1         0.0948
     143    C6      19.594937   19.773443   18.257466 C.3        1 MOL1        -0.1500
     144    H12     20.396869   20.513545   18.377879 H          1 MOL1         0.0948
     145    H13     18.645340   20.317089   18.339293 H          1 MOL1         0.0948
     146    C7      19.703588   19.149188   16.851248 C.3        1 MOL1         0.1162
     147    H14     20.688499   18.680890   16.757515 H          1 MOL1         0.0910
     148    C8      19.586514   20.244402   15.780534 C.3        1 MOL1        -0.2491
     149    H15     20.368994   21.001472   15.915547 H          1 MOL1         0.0959
     150    H16     18.611118   20.745327   15.832769 H          1 MOL1         0.0959
     151    H17     19.701881   19.819728   14.776156 H          1 MOL1         0.0959
     152    N1      18.685845   18.066352   16.617908 N.4        1 MOL1        -0.5987
     153    H18     18.697573   17.735182   15.651012 H          1 MOL1         0.3605
     154    H19     18.856931   17.249785   17.224878 H          1 MOL1         0.3605
     155    H20     17.728898   18.392063   16.829302 H          1 MOL1         0.3605
@<TRIPOS>BOND
    1     1     2    1
    2     1     3    1
    3     1     4    1
    4     4     5    1
    5     4     6    1
    6     6     7    1
    7     4     8    1
    8     8     9    1
    9     8    10    1
   10    10    11    1
   11     8    12    1
   12    12    13    1
   13    12    14    1
   14    14    15    1
   15     1    16    1
   16    14    16    1
   17    14    17    1
   18    17    18    1
   19    17    19    1
   20    17    20    1
   21    20    21    1
   22    22    23    1
   23    22    24    1
   24    22    25    1
   25    25    26    1
   26    25    27    1
   27    27    28    1
   28    25    29    1
   29    29    30    1
   30    29    31    1
   31    31    32    1
   32     3    33    1
   33    29    33    1
   34    33    34    1
   35    33    35    1
   36    35    36    1
   37    22    37    1
   38    35    37    1
   39    35    38    1
   40    38    39    1
   41    38    40    1
   42    38    41    1
   43    41    42    1
   44    43    44    1
   45    43    45    1
   46    43    46    1
   47    46    47    1
   48    46    48    1
   49    48    49    1
   50    46    50    1
   51    50    51    1
   52    50    52    1
   53    52    53    1
   54    24    54    1
   55    50    54    1
   56    54    55    1
   57    54    56    1
   58    56    57    1
   59    43    58    1
   60    56    58    1
   61    56    59    1
   62    59    60    1
   63    59    61    1
   64    59    62    1
   65    62    63    1
   66    64    65    1
   67    64    66    1
   68    64    67    1
   69    67    68    1
   70    67    69    1
   71    69    70    1
   72    67    71    1
   73    71    72    1
   74    71    73    1
   75    73    74    1
   76    45    75    1
   77    71    75    1
   78    75    76    1
   79    75    77    1
   80    77    78    1
   81    64    79    1
   82    77    79    1
   83    77    80    1
   84    80    81    1
   85    80    82    1
   86    80    83    1
   87    83    84    1
   88    85    86    1
   89    85    87    1
   90    85    88    1
   91    88    89    1
   92    88    90    1
   93    90    91    1
   94    88    92    1
   95    92    93    1
   96    92    94    1
   97    94    95    1
   98    66    96    1
   99    92    96    1
  100    96    97    1
  101    96    98    1
  102    98    99    1
  103    85   100    1
  104    98   100    1
  105    98   101    1
  106   101   102    1
  107   101   103    1
  108   101   104    1
  109   104   105    1
  110   106   107    1
  111    12   108    1
  112   106   108    1
  113   106   109    1
  114   109   110    1
  115   109   111    1
  116   111   112    1
  117   109   113    1
  118   113   114    1
  119   113   115    1
  120   115   116    1
  121    87   117    1
  122   113   117    1
  123   117   118    1
  124   117   119    1
  125   119   120    1
  126   106   121    1
  127   119   121    1
  128   119   122    1
  129   122   123    1
  130   122   124    1
  131   122   125    1
  132   125   126    1
  133   127   128    1
  134   127   129    1
  135   127   130    1
  136   127   131    1
  137   131   132    1
  138   131   133    1
  139   131   134    1
  140   134   135    1
  141   134   136    1
  142   134   137    1
  143   137   138    1
  144   137   139    1
  145   137   140    1
  146   140   141    1
  147   140   142    1
  148   140   143    1
  149   143   144    1
  150   143   145    1
  151   143   146    1
  152   146   147    1
  153   146   148    1
  154   148   149    1
  155   148   150    1
  156   148   151    1
  157   146   152    1
  158   152   153    1
  159   152   154    1
  160   152   155    1
@<TRIPOS>SUBSTRUCTURE
       1 MOL1            1 RESIDUE      1      MOL     
       2 MOL1          155 RESIDUE      1      MOL     
@<SCITEGIC>MOL_PROPERTY
VM2 Rank
SciTegic.value.IntegerValue
1

@<SCITEGIC>MOL_PROPERTY
Conf_Id
SciTegic.value.IntegerValue
22793

@<SCITEGIC>MOL_PROPERTY
Probability
SciTegic.value.DoubleValue
3.04

@<SCITEGIC>MOL_PROPERTY
Sum Probability
SciTegic.value.DoubleValue
3.04

@<SCITEGIC>MOL_PROPERTY
Delta G
SciTegic.value.DoubleValue
0.000

@<SCITEGIC>MOL_PROPERTY
G
SciTegic.value.DoubleValue
550.682

@<SCITEGIC>MOL_PROPERTY
E
SciTegic.value.DoubleValue
340.875

@<SCITEGIC>MOL_PROPERTY
-TS
SciTegic.value.DoubleValue
209.807

@<SCITEGIC>MOL_PROPERTY
U+W
SciTegic.value.DoubleValue
204.056

@<SCITEGIC>MOL_PROPERTY
U
SciTegic.value.DoubleValue
266.469

@<SCITEGIC>MOL_PROPERTY
W
SciTegic.value.DoubleValue
-62.413

@<SCITEGIC>MOL_PROPERTY
W(PB)
SciTegic.value.DoubleValue
-68.464

@<SCITEGIC>MOL_PROPERTY
W(SA)
SciTegic.value.DoubleValue
6.051

@<SCITEGIC>MOL_PROPERTY
Valence
SciTegic.value.DoubleValue
149.220

@<SCITEGIC>MOL_PROPERTY
Coulomb
SciTegic.value.DoubleValue
144.816

@<SCITEGIC>MOL_PROPERTY
VdW
SciTegic.value.DoubleValue
-27.567

@<SCITEGIC>MOL_PROPERTY
VdW6
SciTegic.value.DoubleValue
-185.353

@<SCITEGIC>MOL_PROPERTY
VdW12
SciTegic.value.DoubleValue
157.786

@<SCITEGIC>MOL_PROPERTY
Bond
SciTegic.value.DoubleValue
4.276

@<SCITEGIC>MOL_PROPERTY
Angle
SciTegic.value.DoubleValue
9.874

@<SCITEGIC>MOL_PROPERTY
Pdih
SciTegic.value.DoubleValue
135.070

@<SCITEGIC>MOL_PROPERTY
Idih
SciTegic.value.DoubleValue
0.000

@<SCITEGIC>MOL_PROPERTY
Tether
SciTegic.value.DoubleValue
0.000

@<TRIPOS>MOLECULE
CD_guest-s15_vm2_rndm.mol2 : vm2 host+ligand conformer 2
         155         160           2
SMALL
USER_CHARGES
 
@<TRIPOS>ATOM
       1    C1      16.138049   14.962718   21.371361 C.3        1 MOL1         0.2972
       2    H1      15.074546   14.732082   21.230656 H          1 MOL1         0.0751
       3    O1      16.376722   16.380843   21.470898 O.3        1 MOL1        -0.3740
       4    C2      16.660605   14.303342   22.670661 C.3        1 MOL1         0.1003
       5    H2      16.548529   13.217107   22.557975 H          1 MOL1         0.0783
       6    O2      15.903147   14.739040   23.810556 O.3        1 MOL1        -0.5519
       7    H3      15.591274   15.659949   23.622958 H          1 MOL1         0.3769
       8    C3      18.163593   14.610221   22.869179 C.3        1 MOL1         0.1053
       9    H4      18.267362   15.685945   23.066351 H          1 MOL1         0.0783
      10    O3      18.652062   13.864222   23.988040 O.3        1 MOL1        -0.5519
      11    H5      17.949958   13.949636   24.672581 H          1 MOL1         0.3769
      12    C4      18.983388   14.270129   21.596985 C.3        1 MOL1         0.1018
      13    H6      19.098779   13.181138   21.512414 H          1 MOL1         0.0783
      14    C5      18.328140   14.799470   20.293465 C.3        1 MOL1         0.1043
      15    H7      18.445285   15.889813   20.250527 H          1 MOL1         0.0783
      16    O4      16.922680   14.445058   20.276182 O.3        1 MOL1        -0.3740
      17    C6      18.986288   14.187709   19.038547 C.3        1 MOL1         0.0138
      18    H8      18.752584   13.115689   18.991667 H          1 MOL1         0.0794
      19    H9      20.076744   14.285857   19.117603 H          1 MOL1         0.0794
      20    O5      18.528716   14.854442   17.861511 O.3        1 MOL1        -0.5486
      21    H10     17.549753   14.790173   17.863681 H          1 MOL1         0.3769
      22    C7      14.699161   20.125211   20.912142 C.3        1 MOL1         0.2972
      23    H11     14.046921   20.974884   20.674586 H          1 MOL1         0.0751
      24    O6      16.031212   20.549360   21.270885 O.3        1 MOL1        -0.3740
      25    C8      14.111556   19.314556   22.095114 C.3        1 MOL1         0.1003
      26    H12     13.126979   18.943416   21.782109 H          1 MOL1         0.0783
      27    O7      13.952178   20.137229   23.261035 O.3        1 MOL1        -0.5519
      28    H13     14.687213   20.801484   23.258612 H          1 MOL1         0.3769
      29    C9      15.000789   18.089621   22.413047 C.3        1 MOL1         0.1053
      30    H14     15.961422   18.457349   22.797805 H          1 MOL1         0.0783
      31    O8      14.363898   17.279895   23.405382 O.3        1 MOL1        -0.5519
      32    H15     14.032209   17.917358   24.077152 H          1 MOL1         0.3769
      33    C10     15.277074   17.248841   21.141573 C.3        1 MOL1         0.1018
      34    H16     14.370265   16.692200   20.870370 H          1 MOL1         0.0783
      35    C11     15.720390   18.125790   19.941444 C.3        1 MOL1         0.1043
      36    H17     16.727512   18.498809   20.147794 H          1 MOL1         0.0783
      37    O9      14.798707   19.233041   19.782246 O.3        1 MOL1        -0.3740
      38    C12     15.757789   17.346437   18.610997 C.3        1 MOL1         0.0138
      39    H18     14.738345   17.047268   18.333478 H          1 MOL1         0.0794
      40    H19     16.349455   16.433766   18.744605 H          1 MOL1         0.0794
      41    O10     16.346906   18.148288   17.585733 O.3        1 MOL1        -0.5486
      42    H20     15.810447   18.967569   17.528717 H          1 MOL1         0.3769
      43    C13     18.504238   23.930190   21.268366 C.3        1 MOL1         0.2972
      44    H21     18.888088   24.950582   21.140717 H          1 MOL1         0.0751
      45    O11     19.552989   23.005556   21.601648 O.3        1 MOL1        -0.3740
      46    C14     17.435329   23.875437   22.392262 C.3        1 MOL1         0.1003
      47    H22     16.643205   24.585890   22.122494 H          1 MOL1         0.0783
      48    O12     17.996210   24.253400   23.660571 O.3        1 MOL1        -0.5519
      49    H23     18.802656   23.697016   23.806530 H          1 MOL1         0.3769
      50    C15     16.798630   22.466643   22.493002 C.3        1 MOL1         0.1053
      51    H24     17.562464   21.775823   22.873330 H          1 MOL1         0.0783
      52    O13     15.693985   22.512426   23.400352 O.3        1 MOL1        -0.5519
      53    H25     16.018304   23.024843   24.174416 H          1 MOL1         0.3769
      54    C16     16.331088   21.949177   21.108814 C.3        1 MOL1         0.1018
      55    H26     15.455950   22.527234   20.784009 H          1 MOL1         0.0783
      56    C17     17.458142   22.086792   20.053261 C.3        1 MOL1         0.1043
      57    H27     18.280829   21.417679   20.328627 H          1 MOL1         0.0783
      58    O14     17.901579   23.465926   20.041879 O.3        1 MOL1        -0.3740
      59    C18     17.026596   21.721729   18.619979 C.3        1 MOL1         0.0138
      60    H28     16.242313   22.413001   18.284109 H          1 MOL1         0.0794
      61    H29     16.609001   20.708232   18.615414 H          1 MOL1         0.0794
      62    O15     18.163601   21.780762   17.753653 O.3        1 MOL1        -0.5486
      63    H30     18.512628   22.695744   17.839417 H          1 MOL1         0.3769
      64    C19     23.587471   22.665871   22.087282 C.3        1 MOL1         0.2972
      65    H31     24.667149   22.748214   22.266818 H          1 MOL1         0.0751
      66    O16     23.244702   21.438080   21.413617 O.3        1 MOL1        -0.3740
      67    C20     22.806199   22.734548   23.423663 C.3        1 MOL1         0.1003
      68    H32     22.992614   23.723239   23.862819 H          1 MOL1         0.0783
      69    O17     23.239808   21.717988   24.341921 O.3        1 MOL1        -0.5519
      70    H33     24.032796   21.283522   23.943749 H          1 MOL1         0.3769
      71    C21     21.289849   22.596800   23.162699 C.3        1 MOL1         0.1053
      72    H34     21.111228   21.570227   22.818481 H          1 MOL1         0.0783
      73    O18     20.567192   22.828843   24.376181 O.3        1 MOL1        -0.5519
      74    H35     21.049505   22.306170   25.054986 H          1 MOL1         0.3769
      75    C22     20.790733   23.570379   22.065819 C.3        1 MOL1         0.1018
      76    H36     20.645998   24.560273   22.518857 H          1 MOL1         0.0783
      77    C23     21.743136   23.671980   20.836836 C.3        1 MOL1         0.1043
      78    H37     21.607084   22.769789   20.225967 H          1 MOL1         0.0783
      79    O19     23.124299   23.759495   21.269310 O.3        1 MOL1        -0.3740
      80    C24     21.461731   24.887733   19.925604 C.3        1 MOL1         0.0138
      81    H38     20.476216   24.766632   19.457615 H          1 MOL1         0.0794
      82    H39     22.204069   24.900596   19.116286 H          1 MOL1         0.0794
      83    O20     21.511768   26.112131   20.663377 O.3        1 MOL1        -0.5486
      84    H40     22.409234   26.158503   21.061975 H          1 MOL1         0.3769
      85    C25     24.838727   17.794283   20.367029 C.3        1 MOL1         0.2972
      86    H41     25.411584   16.945306   19.972174 H          1 MOL1         0.0751
      87    O21     23.531479   17.380471   20.822912 O.3        1 MOL1        -0.3740
      88    C26     25.609319   18.507063   21.511580 C.3        1 MOL1         0.1003
      89    H42     26.529205   18.913998   21.071717 H          1 MOL1         0.0783
      90    O22     25.968070   17.610948   22.573259 O.3        1 MOL1        -0.5519
      91    H43     25.122310   17.322564   23.000085 H          1 MOL1         0.3769
      92    C27     24.781462   19.693134   22.059170 C.3        1 MOL1         0.1053
      93    H44     23.878159   19.287146   22.535618 H          1 MOL1         0.0783
      94    O23     25.560791   20.403605   23.027684 O.3        1 MOL1        -0.5519
      95    H45     26.026984   19.705602   23.541735 H          1 MOL1         0.3769
      96    C28     24.335380   20.644597   20.915825 C.3        1 MOL1         0.1018
      97    H46     25.180021   21.271090   20.599243 H          1 MOL1         0.0783
      98    C29     23.777712   19.891031   19.677799 C.3        1 MOL1         0.1043
      99    H47     22.773373   19.524719   19.918146 H          1 MOL1         0.0783
     100    O24     24.646380   18.782342   19.332225 O.3        1 MOL1        -0.3740
     101    C30     23.667742   20.812619   18.444225 C.3        1 MOL1         0.0138
     102    H48     24.671722   21.147654   18.151382 H          1 MOL1         0.0794
     103    H49     23.084169   21.703592   18.710170 H          1 MOL1         0.0794
     104    O25     23.035880   20.121473   17.364687 O.3        1 MOL1        -0.5486
     105    H50     23.573618   19.312105   17.217473 H          1 MOL1         0.3769
     106    C31     21.351098   14.128192   22.188150 C.3        1 MOL1         0.2972
     107    H51     21.006986   13.160708   22.576107 H          1 MOL1         0.0751
     108    O26     20.253822   14.934916   21.719444 O.3        1 MOL1        -0.3740
     109    C32     22.105597   14.908217   23.294123 C.3        1 MOL1         0.1003
     110    H52     22.966674   14.296428   23.593189 H          1 MOL1         0.0783
     111    O27     21.270280   15.138150   24.440503 O.3        1 MOL1        -0.5519
     112    H53     20.391309   14.726608   24.251246 H          1 MOL1         0.3769
     113    C33     22.638175   16.255090   22.756072 C.3        1 MOL1         0.1053
     114    H54     21.773334   16.896740   22.554617 H          1 MOL1         0.0783
     115    O28     23.458273   16.857805   23.760729 O.3        1 MOL1        -0.5519
     116    H55     22.937884   16.767681   24.590862 H          1 MOL1         0.3769
     117    C34     23.432713   16.078051   21.435294 C.3        1 MOL1         0.1018
     118    H56     24.419391   15.657592   21.669900 H          1 MOL1         0.0783
     119    C35     22.700367   15.154223   20.422363 C.3        1 MOL1         0.1043
     120    H57     21.831110   15.697228   20.029515 H          1 MOL1         0.0783
     121    O29     22.260564   13.940010   21.082811 O.3        1 MOL1        -0.3740
     122    C36     23.575302   14.748290   19.215822 C.3        1 MOL1         0.0138
     123    H58     23.822745   15.646945   18.635235 H          1 MOL1         0.0794
     124    H59     22.990614   14.087962   18.561369 H          1 MOL1         0.0794
     125    O30     24.772542   14.092140   19.642216 O.3        1 MOL1        -0.5486
     126    H60     24.487682   13.317052   20.175589 H          1 MOL1         0.3769
     127    C1      18.748380   19.525590   24.613202 C.3        1 MOL1        -0.2426
     128    H1      19.025262   19.196061   25.622754 H          1 MOL1         0.0959
     129    H2      18.872818   20.614874   24.569144 H          1 MOL1         0.0959
     130    H3      17.685426   19.296666   24.462627 H          1 MOL1         0.0959
     131    C2      19.623773   18.824211   23.554062 C.3        1 MOL1        -0.1410
     132    H4      19.512520   17.735247   23.651989 H          1 MOL1         0.0948
     133    H5      20.682280   19.052912   23.743922 H          1 MOL1         0.0948
     134    C3      19.243131   19.263797   22.124590 C.3        1 MOL1        -0.1435
     135    H6      18.177786   19.064390   21.954343 H          1 MOL1         0.0948
     136    H7      19.385880   20.345807   22.025090 H          1 MOL1         0.0948
     137    C4      20.078554   18.529072   21.057250 C.3        1 MOL1        -0.1435
     138    H8      19.893365   17.452572   21.146084 H          1 MOL1         0.0948
     139    H9      21.146463   18.686848   21.254066 H          1 MOL1         0.0948
     140    C5      19.748321   18.996144   19.623292 C.3        1 MOL1        -0.1435
     141    H10     18.663647   19.011748   19.473304 H          1 MOL1         0.0948
     142    H11     20.100817   20.027862   19.489247 H          1 MOL1         0.0948
     143    C6      20.381094   18.070599   18.559046 C.3        1 MOL1        -0.1500
     144    H12     20.109020   17.030661   18.778763 H          1 MOL1         0.0948
     145    H13     21.475097   18.126034   18.619468 H          1 MOL1         0.0948
     146    C7      19.912416   18.395843   17.125441 C.3        1 MOL1         0.1162
     147    H14     18.829459   18.241825   17.071758 H          1 MOL1         0.0910
     148    C8      20.585916   17.444756   16.124368 C.3        1 MOL1        -0.2491
     149    H15     21.675728   17.569513   16.130672 H          1 MOL1         0.0959
     150    H16     20.224098   17.634806   15.106758 H          1 MOL1         0.0959
     151    H17     20.357377   16.399726   16.369040 H          1 MOL1         0.0959
     152    N1      20.163748   19.829127   16.746681 N.4        1 MOL1        -0.5987
     153    H18     19.967931   19.993562   15.756915 H          1 MOL1         0.3605
     154    H19     19.555638   20.468699   17.281542 H          1 MOL1         0.3605
     155    H20     21.146504   20.090436   16.924194 H          1 MOL1         0.3605
@<TRIPOS>BOND
    1     1     2    1
    2     1     3    1
    3     1     4    1
    4     4     5    1
    5     4     6    1
    6     6     7    1
    7     4     8    1
    8     8     9    1
    9     8    10    1
   10    10    11    1
   11     8    12    1
   12    12    13    1
   13    12    14    1
   14    14    15    1
   15     1    16    1
   16    14    16    1
   17    14    17    1
   18    17    18    1
   19    17    19    1
   20    17    20    1
   21    20    21    1
   22    22    23    1
   23    22    24    1
   24    22    25    1
   25    25    26    1
   26    25    27    1
   27    27    28    1
   28    25    29    1
   29    29    30    1
   30    29    31    1
   31    31    32    1
   32     3    33    1
   33    29    33    1
   34    33    34    1
   35    33    35    1
   36    35    36    1
   37    22    37    1
   38    35    37    1
   39    35    38    1
   40    38    39    1
   41    38    40    1
   42    38    41    1
   43    41    42    1
   44    43    44    1
   45    43    45    1
   46    43    46    1
   47    46    47    1
   48    46    48    1
   49    48    49    1
   50    46    50    1
   51    50    51    1
   52    50    52    1
   53    52    53    1
   54    24    54    1
   55    50    54    1
   56    54    55    1
   57    54    56    1
   58    56    57    1
   59    43    58    1
   60    56    58    1
   61    56    59    1
   62    59    60    1
   63    59    61    1
   64    59    62    1
   65    62    63    1
   66    64    65    1
   67    64    66    1
   68    64    67    1
   69    67    68    1
   70    67    69    1
   71    69    70    1
   72    67    71    1
   73    71    72    1
   74    71    73    1
   75    73    74    1
   76    45    75    1
   77    71    75    1
   78    75    76    1
   79    75    77    1
   80    77    78    1
   81    64    79    1
   82    77    79    1
   83    77    80    1
   84    80    81    1
   85    80    82    1
   86    80    83    1
   87    83    84    1
   88    85    86    1
   89    85    87    1
   90    85    88    1
   91    88    89    1
   92    88    90    1
   93    90    91    1
   94    88    92    1
   95    92    93    1
   96    92    94    1
   97    94    95    1
   98    66    96    1
   99    92    96    1
  100    96    97    1
  101    96    98    1
  102    98    99    1
  103    85   100    1
  104    98   100    1
  105    98   101    1
  106   101   102    1
  107   101   103    1
  108   101   104    1
  109   104   105    1
  110   106   107    1
  111    12   108    1
  112   106   108    1
  113   106   109    1
  114   109   110    1
  115   109   111    1
  116   111   112    1
  117   109   113    1
  118   113   114    1
  119   113   115    1
  120   115   116    1
  121    87   117    1
  122   113   117    1
  123   117   118    1
  124   117   119    1
  125   119   120    1
  126   106   121    1
  127   119   121    1
  128   119   122    1
  129   122   123    1
  130   122   124    1
  131   122   125    1
  132   125   126    1
  133   127   128    1
  134   127   129    1
  135   127   130    1
  136   127   131    1
  137   131   132    1
  138   131   133    1
  139   131   134    1
  140   134   135    1
  141   134   136    1
  142   134   137    1
  143   137   138    1
  144   137   139    1
  145   137   140    1
  146   140   141    1
  147   140   142    1
  148   140   143    1
  149   143   144    1
  150   143   145    1
  151   143   146    1
  152   146   147    1
  153   146   148    1
  154   148   149    1
  155   148   150    1
  156   148   151    1
  157   146   152    1
  158   152   153    1
  159   152   154    1
  160   152   155    1
@<TRIPOS>SUBSTRUCTURE
       1 MOL1            1 RESIDUE      1      MOL     
       2 MOL1          155 RESIDUE      1      MOL     
@<SCITEGIC>MOL_PROPERTY
VM2 Rank
SciTegic.value.IntegerValue
2

@<SCITEGIC>MOL_PROPERTY
Conf_Id
SciTegic.value.IntegerValue
13225

@<SCITEGIC>MOL_PROPERTY
Probability
SciTegic.value.DoubleValue
1.56

@<SCITEGIC>MOL_PROPERTY
Sum Probability
SciTegic.value.DoubleValue
4.60

@<SCITEGIC>MOL_PROPERTY
Delta G
SciTegic.value.DoubleValue
0.400

@<SCITEGIC>MOL_PROPERTY
G
SciTegic.value.DoubleValue
551.082

@<SCITEGIC>MOL_PROPERTY
E
SciTegic.value.DoubleValue
340.983

@<SCITEGIC>MOL_PROPERTY
-TS
SciTegic.value.DoubleValue
210.099

@<SCITEGIC>MOL_PROPERTY
U+W
SciTegic.value.DoubleValue
204.163

@<SCITEGIC>MOL_PROPERTY
U
SciTegic.value.DoubleValue
264.909

@<SCITEGIC>MOL_PROPERTY
W
SciTegic.value.DoubleValue
-60.745

@<SCITEGIC>MOL_PROPERTY
W(PB)
SciTegic.value.DoubleValue
-66.717

@<SCITEGIC>MOL_PROPERTY
W(SA)
SciTegic.value.DoubleValue
5.971

@<SCITEGIC>MOL_PROPERTY
Valence
SciTegic.value.DoubleValue
149.683

@<SCITEGIC>MOL_PROPERTY
Coulomb
SciTegic.value.DoubleValue
145.206

@<SCITEGIC>MOL_PROPERTY
VdW
SciTegic.value.DoubleValue
-29.980

@<SCITEGIC>MOL_PROPERTY
VdW6
SciTegic.value.DoubleValue
-187.192

@<SCITEGIC>MOL_PROPERTY
VdW12
SciTegic.value.DoubleValue
157.213

@<SCITEGIC>MOL_PROPERTY
Bond
SciTegic.value.DoubleValue
4.192

@<SCITEGIC>MOL_PROPERTY
Angle
SciTegic.value.DoubleValue
9.970

@<SCITEGIC>MOL_PROPERTY
Pdih
SciTegic.value.DoubleValue
135.520

@<SCITEGIC>MOL_PROPERTY
Idih
SciTegic.value.DoubleValue
0.000

@<SCITEGIC>MOL_PROPERTY
Tether
SciTegic.value.DoubleValue
0.000

@<TRIPOS>MOLECULE
CD_guest-s15_vm2_rndm.mol2 : vm2 host+ligand conformer 3
         155         160           2
SMALL
USER_CHARGES
 
@<TRIPOS>ATOM
       1    C1      16.349059   15.102322   21.100139 C.3        1 MOL1         0.2972
       2    H1      15.297621   14.918496   20.846564 H          1 MOL1         0.0751
       3    O1      16.603439   16.495879   21.374546 O.3        1 MOL1        -0.3740
       4    C2      16.755804   14.274128   22.345644 C.3        1 MOL1         0.1003
       5    H2      16.623546   13.214391   22.091485 H          1 MOL1         0.0783
       6    O2      15.929615   14.587991   23.476749 O.3        1 MOL1        -0.5519
       7    H3      15.770738   15.566192   23.467814 H          1 MOL1         0.3769
       8    C3      18.248521   14.496841   22.683155 C.3        1 MOL1         0.1053
       9    H4      18.375513   15.542891   22.992606 H          1 MOL1         0.0783
      10    O3      18.631804   13.627351   23.753117 O.3        1 MOL1        -0.5519
      11    H5      17.881353   13.664104   24.388719 H          1 MOL1         0.3769
      12    C4      19.141888   14.247968   21.441282 C.3        1 MOL1         0.1018
      13    H6      19.198847   13.171148   21.232625 H          1 MOL1         0.0783
      14    C5      18.615664   14.973202   20.174659 C.3        1 MOL1         0.1043
      15    H7      18.781615   16.048979   20.294888 H          1 MOL1         0.0783
      16    O4      17.202925   14.692732   20.012760 O.3        1 MOL1        -0.3740
      17    C6      19.344976   14.502606   18.896372 C.3        1 MOL1         0.0138
      18    H8      18.949477   13.521604   18.600801 H          1 MOL1         0.0794
      19    H9      20.411837   14.371918   19.116966 H          1 MOL1         0.0794
      20    O5      19.190555   15.449317   17.833779 O.3        1 MOL1        -0.5486
      21    H10     19.578678   15.039755   17.030165 H          1 MOL1         0.3769
      22    C7      14.711576   20.233798   21.178847 C.3        1 MOL1         0.2972
      23    H11     13.955291   21.018128   21.049871 H          1 MOL1         0.0751
      24    O6      16.029124   20.783378   21.374024 O.3        1 MOL1        -0.3740
      25    C8      14.371613   19.362106   22.414265 C.3        1 MOL1         0.1003
      26    H12     13.377355   18.928666   22.244838 H          1 MOL1         0.0783
      27    O7      14.337572   20.153038   23.612912 O.3        1 MOL1        -0.5519
      28    H13     15.022878   20.862261   23.521534 H          1 MOL1         0.3769
      29    C9      15.377227   18.194624   22.560821 C.3        1 MOL1         0.1053
      30    H14     16.364374   18.614508   22.798547 H          1 MOL1         0.0783
      31    O8      14.944794   17.336590   23.620001 O.3        1 MOL1        -0.5519
      32    H15     14.692111   17.945383   24.350140 H          1 MOL1         0.3769
      33    C10     15.488671   17.398317   21.236449 C.3        1 MOL1         0.1018
      34    H16     14.545185   16.862843   21.067007 H          1 MOL1         0.0783
      35    C11     15.765940   18.342326   20.035541 C.3        1 MOL1         0.1043
      36    H17     16.761312   18.788262   20.154932 H          1 MOL1         0.0783
      37    O9      14.748621   19.375041   20.018921 O.3        1 MOL1        -0.3740
      38    C12     15.717687   17.620800   18.672378 C.3        1 MOL1         0.0138
      39    H18     14.724348   17.174637   18.531341 H          1 MOL1         0.0794
      40    H19     16.454969   16.807298   18.664105 H          1 MOL1         0.0794
      41    O10     16.005914   18.547306   17.621873 O.3        1 MOL1        -0.5486
      42    H20     15.377221   19.293140   17.739179 H          1 MOL1         0.3769
      43    C13     18.336291   24.182091   21.119726 C.3        1 MOL1         0.2972
      44    H21     18.772016   25.180426   20.984488 H          1 MOL1         0.0751
      45    O11     19.355914   23.166227   21.231732 O.3        1 MOL1        -0.3740
      46    C14     17.412191   24.132186   22.364325 C.3        1 MOL1         0.1003
      47    H22     16.571759   24.811246   22.170011 H          1 MOL1         0.0783
      48    O12     18.083663   24.563021   23.556686 O.3        1 MOL1        -0.5519
      49    H23     18.823383   23.924863   23.718691 H          1 MOL1         0.3769
      50    C15     16.840458   22.705111   22.537965 C.3        1 MOL1         0.1053
      51    H24     17.673175   22.026828   22.770765 H          1 MOL1         0.0783
      52    O13     15.895489   22.694572   23.611934 O.3        1 MOL1        -0.5519
      53    H25     16.318880   23.212502   24.332628 H          1 MOL1         0.3769
      54    C16     16.158541   22.211456   21.235916 C.3        1 MOL1         0.1018
      55    H26     15.184826   22.710335   21.142502 H          1 MOL1         0.0783
      56    C17     17.000906   22.489479   19.958544 C.3        1 MOL1         0.1043
      57    H27     17.834593   21.779974   19.924486 H          1 MOL1         0.0783
      58    O14     17.507694   23.847786   19.986977 O.3        1 MOL1        -0.3740
      59    C18     16.182455   22.328665   18.661261 C.3        1 MOL1         0.0138
      60    H28     15.366584   23.063595   18.651962 H          1 MOL1         0.0794
      61    H29     15.734121   21.328350   18.635763 H          1 MOL1         0.0794
      62    O15     17.030535   22.505551   17.525514 O.3        1 MOL1        -0.5486
      63    H30     17.500314   23.356454   17.668220 H          1 MOL1         0.3769
      64    C19     23.376556   22.536317   21.966594 C.3        1 MOL1         0.2972
      65    H31     24.438504   22.622127   22.228088 H          1 MOL1         0.0751
      66    O16     23.093186   21.299742   21.279444 O.3        1 MOL1        -0.3740
      67    C20     22.496254   22.609151   23.240630 C.3        1 MOL1         0.1003
      68    H32     22.686067   23.582612   23.711410 H          1 MOL1         0.0783
      69    O17     22.817766   21.562109   24.171076 O.3        1 MOL1        -0.5519
      70    H33     23.736798   21.265373   23.966132 H          1 MOL1         0.3769
      71    C21     20.998798   22.533005   22.869252 C.3        1 MOL1         0.1053
      72    H34     20.807262   21.536775   22.457327 H          1 MOL1         0.0783
      73    O18     20.219656   22.718286   24.053731 O.3        1 MOL1        -0.5519
      74    H35     20.668216   22.160787   24.729401 H          1 MOL1         0.3769
      75    C22     20.621081   23.575248   21.786715 C.3        1 MOL1         0.1018
      76    H36     20.567265   24.567103   22.254994 H          1 MOL1         0.0783
      77    C23     21.633384   23.596257   20.606934 C.3        1 MOL1         0.1043
      78    H37     21.490846   22.679130   20.020208 H          1 MOL1         0.0783
      79    O19     22.992805   23.629977   21.107224 O.3        1 MOL1        -0.3740
      80    C24     21.433707   24.791310   19.644162 C.3        1 MOL1         0.0138
      81    H38     20.507929   24.628825   19.075677 H          1 MOL1         0.0794
      82    H39     22.261765   24.802117   18.922821 H          1 MOL1         0.0794
      83    O20     21.362316   26.041931   20.340675 O.3        1 MOL1        -0.5486
      84    H40     21.316679   26.755745   19.667624 H          1 MOL1         0.3769
      85    C25     24.944955   17.626165   20.690969 C.3        1 MOL1         0.2972
      86    H41     25.598662   16.795574   20.394598 H          1 MOL1         0.0751
      87    O21     23.666164   17.157529   21.161182 O.3        1 MOL1        -0.3740
      88    C26     25.599056   18.489876   21.798847 C.3        1 MOL1         0.1003
      89    H42     26.517053   18.916811   21.374254 H          1 MOL1         0.0783
      90    O22     25.944273   17.709037   22.953189 O.3        1 MOL1        -0.5519
      91    H43     25.111442   17.286795   23.284630 H          1 MOL1         0.3769
      92    C27     24.667966   19.662850   22.192719 C.3        1 MOL1         0.1053
      93    H44     23.768284   19.242771   22.664304 H          1 MOL1         0.0783
      94    O23     25.362866   20.495184   23.128341 O.3        1 MOL1        -0.5519
      95    H45     25.851606   19.868093   23.709318 H          1 MOL1         0.3769
      96    C28     24.224677   20.473258   20.938616 C.3        1 MOL1         0.1018
      97    H46     25.063651   21.082597   20.576995 H          1 MOL1         0.0783
      98    C29     23.742522   19.553732   19.783751 C.3        1 MOL1         0.1043
      99    H47     22.767595   19.127763   20.053146 H          1 MOL1         0.0783
     100    O24     24.708721   18.496110   19.564542 O.3        1 MOL1        -0.3740
     101    C30     23.581290   20.323867   18.456575 C.3        1 MOL1         0.0138
     102    H48     24.562984   20.689920   18.127669 H          1 MOL1         0.0794
     103    H49     22.936479   21.197341   18.619761 H          1 MOL1         0.0794
     104    O25     23.004533   19.472750   17.464695 O.3        1 MOL1        -0.5486
     105    H50     23.559604   18.662880   17.445723 H          1 MOL1         0.3769
     106    C31     21.449183   13.873185   22.158220 C.3        1 MOL1         0.2972
     107    H51     21.020888   12.901723   22.437212 H          1 MOL1         0.0751
     108    O26     20.434061   14.806172   21.736881 O.3        1 MOL1        -0.3740
     109    C32     22.211024   14.485179   23.357764 C.3        1 MOL1         0.1003
     110    H52     23.042162   13.809435   23.598049 H          1 MOL1         0.0783
     111    O27     21.356339   14.608416   24.505918 O.3        1 MOL1        -0.5519
     112    H53     20.443147   14.361544   24.217428 H          1 MOL1         0.3769
     113    C33     22.805171   15.860990   22.978110 C.3        1 MOL1         0.1053
     114    H54     21.972267   16.558740   22.841006 H          1 MOL1         0.0783
     115    O28     23.636851   16.324544   24.045174 O.3        1 MOL1        -0.5519
     116    H55     23.108447   16.166532   24.859640 H          1 MOL1         0.3769
     117    C34     23.611393   15.805923   21.653636 C.3        1 MOL1         0.1018
     118    H56     24.610482   15.403453   21.867997 H          1 MOL1         0.0783
     119    C35     22.922019   14.964393   20.540336 C.3        1 MOL1         0.1043
     120    H57     22.098330   15.561499   20.126897 H          1 MOL1         0.0783
     121    O29     22.396509   13.725606   21.080757 O.3        1 MOL1        -0.3740
     122    C36     23.862909   14.607387   19.368397 C.3        1 MOL1         0.0138
     123    H58     24.174628   15.531891   18.864617 H          1 MOL1         0.0794
     124    H59     23.303712   14.010087   18.635822 H          1 MOL1         0.0794
     125    O30     25.008884   13.884707   19.827129 O.3        1 MOL1        -0.5486
     126    H60     24.665711   13.086486   20.287206 H          1 MOL1         0.3769
     127    C1      19.538342   17.985419   24.440319 C.3        1 MOL1        -0.2426
     128    H1      20.200143   17.113479   24.373100 H          1 MOL1         0.0959
     129    H2      19.690884   18.448265   25.423642 H          1 MOL1         0.0959
     130    H3      18.500065   17.631878   24.391624 H          1 MOL1         0.0959
     131    C2      19.832983   18.996420   23.313112 C.3        1 MOL1        -0.1410
     132    H4      20.861228   19.371411   23.416459 H          1 MOL1         0.0948
     133    H5      19.163251   19.861275   23.421220 H          1 MOL1         0.0948
     134    C3      19.647912   18.362572   21.918542 C.3        1 MOL1        -0.1435
     135    H6      20.388554   17.568761   21.767849 H          1 MOL1         0.0948
     136    H7      18.662056   17.888123   21.868427 H          1 MOL1         0.0948
     137    C4      19.765038   19.398262   20.782948 C.3        1 MOL1        -0.1435
     138    H8      20.712730   19.944159   20.869730 H          1 MOL1         0.0948
     139    H9      18.960047   20.135758   20.891317 H          1 MOL1         0.0948
     140    C5      19.690519   18.730316   19.392878 C.3        1 MOL1        -0.1435
     141    H10     20.575536   18.095704   19.243417 H          1 MOL1         0.0948
     142    H11     18.814912   18.071566   19.349088 H          1 MOL1         0.0948
     143    C6      19.596682   19.775101   18.258564 C.3        1 MOL1        -0.1500
     144    H12     20.397838   20.515991   18.379327 H          1 MOL1         0.0948
     145    H13     18.646513   20.317738   18.340449 H          1 MOL1         0.0948
     146    C7      19.706180   19.151383   16.852170 C.3        1 MOL1         0.1162
     147    H14     20.691444   18.683815   16.758555 H          1 MOL1         0.0910
     148    C8      19.588596   20.246857   15.781779 C.3        1 MOL1        -0.2491
     149    H15     20.370534   21.004410   15.917194 H          1 MOL1         0.0959
     150    H16     18.612858   20.747116   15.833982 H          1 MOL1         0.0959
     151    H17     19.704448   19.822583   14.777289 H          1 MOL1         0.0959
     152    N1      18.689308   18.067889   16.618171 N.4        1 MOL1        -0.5987
     153    H18     18.701892   17.736745   15.651278 H          1 MOL1         0.3605
     154    H19     18.860499   17.251422   17.225247 H          1 MOL1         0.3605
     155    H20     17.732032   18.393074   16.828881 H          1 MOL1         0.3605
@<TRIPOS>BOND
    1     1     2    1
    2     1     3    1
    3     1     4    1
    4     4     5    1
    5     4     6    1
    6     6     7    1
    7     4     8    1
    8     8     9    1
    9     8    10    1
   10    10    11    1
   11     8    12    1
   12    12    13    1
   13    12    14    1
   14    14    15    1
   15     1    16    1
   16    14    16    1
   17    14    17    1
   18    17    18    1
   19    17    19    1
   20    17    20    1
   21    20    21    1
   22    22    23    1
   23    22    24    1
   24    22    25    1
   25    25    26    1
   26    25    27    1
   27    27    28    1
   28    25    29    1
   29    29    30    1
   30    29    31    1
   31    31    32    1
   32     3    33    1
   33    29    33    1
   34    33    34    1
   35    33    35    1
   36    35    36    1
   37    22    37    1
   38    35    37    1
   39    35    38    1
   40    38    39    1
   41    38    40    1
   42    38    41    1
   43    41    42    1
   44    43    44    1
   45    43    45    1
   46    43    46    1
   47    46    47    1
   48    46    48    1
   49    48    49    1
   50    46    50    1
   51    50    51    1
   52    50    52    1
   53    52    53    1
   54    24    54    1
   55    50    54    1
   56    54    55    1
   57    54    56    1
   58    56    57    1
   59    43    58    1
   60    56    58    1
   61    56    59    1
   62    59    60    1
   63    59    61    1
   64    59    62    1
   65    62    63    1
   66    64    65    1
   67    64    66    1
   68    64    67    1
   69    67    68    1
   70    67    69    1
   71    69    70    1
   72    67    71    1
   73    71    72    1
   74    71    73    1
   75    73    74    1
   76    45    75    1
   77    71    75    1
   78    75    76    1
   79    75    77    1
   80    77    78    1
   81    64    79    1
   82    77    79    1
   83    77    80    1
   84    80    81    1
   85    80    82    1
   86    80    83    1
   87    83    84    1
   88    85    86    1
   89    85    87    1
   90    85    88    1
   91    88    89    1
   92    88    90    1
   93    90    91    1
   94    88    92    1
   95    92    93    1
   96    92    94    1
   97    94    95    1
   98    66    96    1
   99    92    96    1
  100    96    97    1
  101    96    98    1
  102    98    99    1
  103    85   100    1
  104    98   100    1
  105    98   101    1
  106   101   102    1
  107   101   103    1
  108   101   104    1
  109   104   105    1
  110   106   107    1
  111    12   108    1
  112   106   108    1
  113   106   109    1
  114   109   110    1
  115   109   111    1
  116   111   112    1
  117   109   113    1
  118   113   114    1
  119   113   115    1
  120   115   116    1
  121    87   117    1
  122   113   117    1
  123   117   118    1
  124   117   119    1
  125   119   120    1
  126   106   121    1
  127   119   121    1
  128   119   122    1
  129   122   123    1
  130   122   124    1
  131   122   125    1
  132   125   126    1
  133   127   128    1
  134   127   129    1
  135   127   130    1
  136   127   131    1
  137   131   132    1
  138   131   133    1
  139   131   134    1
  140   134   135    1
  141   134   136    1
  142   134   137    1
  143   137   138    1
  144   137   139    1
  145   137   140    1
  146   140   141    1
  147   140   142    1
  148   140   143    1
  149   143   144    1
  150   143   145    1
  151   143   146    1
  152   146   147    1
  153   146   148    1
  154   148   149    1
  155   148   150    1
  156   148   151    1
  157   146   152    1
  158   152   153    1
  159   152   154    1
  160   152   155    1
@<TRIPOS>SUBSTRUCTURE
       1 MOL1            1 RESIDUE      1      MOL     
       2 MOL1          155 RESIDUE      1      MOL     
@<SCITEGIC>MOL_PROPERTY
VM2 Rank
SciTegic.value.IntegerValue
3

@<SCITEGIC>MOL_PROPERTY
Conf_Id
SciTegic.value.IntegerValue
20331

@<SCITEGIC>MOL_PROPERTY
Probability
SciTegic.value.DoubleValue
1.40

@<SCITEGIC>MOL_PROPERTY
Sum Probability
SciTegic.value.DoubleValue
6.00

@<SCITEGIC>MOL_PROPERTY
Delta G
SciTegic.value.DoubleValue
0.462

@<SCITEGIC>MOL_PROPERTY
G
SciTegic.value.DoubleValue
551.144

@<SCITEGIC>MOL_PROPERTY
E
SciTegic.value.DoubleValue
341.416

@<SCITEGIC>MOL_PROPERTY
-TS
SciTegic.value.DoubleValue
209.728

@<SCITEGIC>MOL_PROPERTY
U+W
SciTegic.value.DoubleValue
204.597

@<SCITEGIC>MOL_PROPERTY
U
SciTegic.value.DoubleValue
268.092

@<SCITEGIC>MOL_PROPERTY
W
SciTegic.value.DoubleValue
-63.495

@<SCITEGIC>MOL_PROPERTY
W(PB)
SciTegic.value.DoubleValue
-69.558

@<SCITEGIC>MOL_PROPERTY
W(SA)
SciTegic.value.DoubleValue
6.063

@<SCITEGIC>MOL_PROPERTY
Valence
SciTegic.value.DoubleValue
148.970

@<SCITEGIC>MOL_PROPERTY
Coulomb
SciTegic.value.DoubleValue
146.652

@<SCITEGIC>MOL_PROPERTY
VdW
SciTegic.value.DoubleValue
-27.531

@<SCITEGIC>MOL_PROPERTY
VdW6
SciTegic.value.DoubleValue
-185.292

@<SCITEGIC>MOL_PROPERTY
VdW12
SciTegic.value.DoubleValue
157.761

@<SCITEGIC>MOL_PROPERTY
Bond
SciTegic.value.DoubleValue
4.292

@<SCITEGIC>MOL_PROPERTY
Angle
SciTegic.value.DoubleValue
10.017

@<SCITEGIC>MOL_PROPERTY
Pdih
SciTegic.value.DoubleValue
134.661

@<SCITEGIC>MOL_PROPERTY
Idih
SciTegic.value.DoubleValue
0.000

@<SCITEGIC>MOL_PROPERTY
Tether
SciTegic.value.DoubleValue
0.000

@<TRIPOS>MOLECULE
CD_guest-s15_vm2_rndm.mol2 : vm2 host+ligand conformer 4
         155         160           2
SMALL
USER_CHARGES
 
@<TRIPOS>ATOM
       1    C1      16.204541   15.089067   21.251097 C.3        1 MOL1         0.2972
       2    H1      15.154005   14.829043   21.070540 H          1 MOL1         0.0751
       3    O1      16.382542   16.504051   21.458315 O.3        1 MOL1        -0.3740
       4    C2      16.728968   14.353580   22.509074 C.3        1 MOL1         0.1003
       5    H2      16.638551   13.276041   22.319582 H          1 MOL1         0.0783
       6    O2      15.950792   14.691537   23.667993 O.3        1 MOL1        -0.5519
       7    H3      15.654931   15.630894   23.562816 H          1 MOL1         0.3769
       8    C3      18.225033   14.668424   22.749618 C.3        1 MOL1         0.1053
       9    H4      18.312534   15.730841   23.015745 H          1 MOL1         0.0783
      10    O3      18.699001   13.856473   23.829083 O.3        1 MOL1        -0.5519
      11    H5      17.974878   13.880337   24.495687 H          1 MOL1         0.3769
      12    C4      19.061603   14.419179   21.465104 C.3        1 MOL1         0.1018
      13    H6      19.155533   13.339533   21.286563 H          1 MOL1         0.0783
      14    C5      18.420580   15.071081   20.212718 C.3        1 MOL1         0.1043
      15    H7      18.515260   16.160609   20.293268 H          1 MOL1         0.0783
      16    O4      17.025372   14.687369   20.134194 O.3        1 MOL1        -0.3740
      17    C6      19.107367   14.614055   18.908445 C.3        1 MOL1         0.0138
      18    H8      18.903648   13.547367   18.745394 H          1 MOL1         0.0794
      19    H9      20.193593   14.732517   19.009557 H          1 MOL1         0.0794
      20    O5      18.640857   15.389953   17.803812 O.3        1 MOL1        -0.5486
      21    H10     17.662392   15.320586   17.803558 H          1 MOL1         0.3769
      22    C7      14.534253   20.198482   21.121214 C.3        1 MOL1         0.2972
      23    H11     13.841260   21.032731   20.954791 H          1 MOL1         0.0751
      24    O6      15.871697   20.653657   21.408398 O.3        1 MOL1        -0.3740
      25    C8      14.067700   19.344441   22.325254 C.3        1 MOL1         0.1003
      26    H12     13.069396   18.953787   22.088970 H          1 MOL1         0.0783
      27    O7      13.995064   20.143524   23.517069 O.3        1 MOL1        -0.5519
      28    H13     14.733016   20.802661   23.474664 H          1 MOL1         0.3769
      29    C9      15.016437   18.140376   22.538611 C.3        1 MOL1         0.1053
      30    H14     15.987879   18.531754   22.867635 H          1 MOL1         0.0783
      31    O8      14.478302   17.281081   23.547401 O.3        1 MOL1        -0.5519
      32    H15     14.185382   17.884985   24.266232 H          1 MOL1         0.3769
      33    C10     15.236734   17.345547   21.225886 C.3        1 MOL1         0.1018
      34    H16     14.331464   16.766635   21.000196 H          1 MOL1         0.0783
      35    C11     15.567483   18.275006   20.027117 C.3        1 MOL1         0.1043
      36    H17     16.565698   18.697832   20.181114 H          1 MOL1         0.0783
      37    O9      14.584002   19.336178   19.964997 O.3        1 MOL1        -0.3740
      38    C12     15.562458   17.543087   18.668643 C.3        1 MOL1         0.0138
      39    H18     14.532083   17.273402   18.401388 H          1 MOL1         0.0794
      40    H19     16.137491   16.614733   18.755961 H          1 MOL1         0.0794
      41    O10     16.151289   18.367348   17.659569 O.3        1 MOL1        -0.5486
      42    H20     15.626267   19.194777   17.624830 H          1 MOL1         0.3769
      43    C13     18.405844   23.938081   21.152549 C.3        1 MOL1         0.2972
      44    H21     18.838011   24.935360   20.999639 H          1 MOL1         0.0751
      45    O11     19.431069   22.939471   21.322056 O.3        1 MOL1        -0.3740
      46    C14     17.451418   23.924427   22.379511 C.3        1 MOL1         0.1003
      47    H22     16.659311   24.657410   22.178775 H          1 MOL1         0.0783
      48    O12     18.129182   24.292806   23.590504 O.3        1 MOL1        -0.5519
      49    H23     18.842515   23.621476   23.739917 H          1 MOL1         0.3769
      50    C15     16.784404   22.537594   22.543530 C.3        1 MOL1         0.1053
      51    H24     17.565765   21.819806   22.827020 H          1 MOL1         0.0783
      52    O13     15.789736   22.598282   23.570956 O.3        1 MOL1        -0.5519
      53    H25     16.211228   23.092168   24.309133 H          1 MOL1         0.3769
      54    C16     16.141311   22.054201   21.219798 C.3        1 MOL1         0.1018
      55    H26     15.228632   22.634207   21.029521 H          1 MOL1         0.0783
      56    C17     17.114066   22.199748   20.020719 C.3        1 MOL1         0.1043
      57    H27     17.928118   21.478512   20.151364 H          1 MOL1         0.0783
      58    O14     17.632115   23.552811   19.997424 O.3        1 MOL1        -0.3740
      59    C18     16.460126   21.931001   18.651270 C.3        1 MOL1         0.0138
      60    H28     15.730232   22.721449   18.431283 H          1 MOL1         0.0794
      61    H29     15.922341   20.978575   18.684275 H          1 MOL1         0.0794
      62    O15     17.469653   21.873824   17.641173 O.3        1 MOL1        -0.5486
      63    H30     17.933457   22.739812   17.677140 H          1 MOL1         0.3769
      64    C19     23.478129   22.479225   22.050229 C.3        1 MOL1         0.2972
      65    H31     24.529812   22.601547   22.338378 H          1 MOL1         0.0751
      66    O16     23.278831   21.295800   21.250155 O.3        1 MOL1        -0.3740
      67    C20     22.574300   22.401778   23.310074 C.3        1 MOL1         0.1003
      68    H32     22.707407   23.342026   23.860870 H          1 MOL1         0.0783
      69    O17     22.931924   21.302350   24.162995 O.3        1 MOL1        -0.5519
      70    H33     23.868445   21.067447   23.958518 H          1 MOL1         0.3769
      71    C21     21.087106   22.283734   22.909573 C.3        1 MOL1         0.1053
      72    H34     20.947219   21.307569   22.428481 H          1 MOL1         0.0783
      73    O18     20.275658   22.369437   24.085332 O.3        1 MOL1        -0.5519
      74    H35     20.713510   21.767334   24.727836 H          1 MOL1         0.3769
      75    C22     20.675361   23.378307   21.896940 C.3        1 MOL1         0.1018
      76    H36     20.569036   24.331394   22.431790 H          1 MOL1         0.0783
      77    C23     21.699301   23.530726   20.736538 C.3        1 MOL1         0.1043
      78    H37     21.615624   22.651001   20.084326 H          1 MOL1         0.0783
      79    O19     23.043701   23.614753   21.271961 O.3        1 MOL1        -0.3740
      80    C24     21.462797   24.782028   19.861521 C.3        1 MOL1         0.0138
      81    H38     20.503325   24.676825   19.338176 H          1 MOL1         0.0794
      82    H39     22.247467   24.829809   19.094603 H          1 MOL1         0.0794
      83    O20     21.466413   25.975390   20.650410 O.3        1 MOL1        -0.5486
      84    H40     22.338312   26.004120   21.103656 H          1 MOL1         0.3769
      85    C25     25.098259   17.692374   20.504588 C.3        1 MOL1         0.2972
      86    H41     25.710147   16.833161   20.200939 H          1 MOL1         0.0751
      87    O21     23.756629   17.289528   20.858919 O.3        1 MOL1        -0.3740
      88    C26     25.755698   18.469483   21.674308 C.3        1 MOL1         0.1003
      89    H42     26.692001   18.893732   21.288588 H          1 MOL1         0.0783
      90    O22     26.066085   17.623308   22.790416 O.3        1 MOL1        -0.5519
      91    H43     25.201765   17.328555   23.173095 H          1 MOL1         0.3769
      92    C27     24.848292   19.644330   22.109814 C.3        1 MOL1         0.1053
      93    H44     23.925144   19.223978   22.532067 H          1 MOL1         0.0783
      94    O23     25.534595   20.407678   23.108769 O.3        1 MOL1        -0.5519
      95    H45     25.995842   19.740347   23.666580 H          1 MOL1         0.3769
      96    C28     24.457123   20.541866   20.899670 C.3        1 MOL1         0.1018
      97    H46     25.294647   21.206995   20.650365 H          1 MOL1         0.0783
      98    C29     24.069298   19.731956   19.629755 C.3        1 MOL1         0.1043
      99    H47     23.053044   19.341036   19.760934 H          1 MOL1         0.0783
     100    O24     24.996559   18.636700   19.418928 O.3        1 MOL1        -0.3740
     101    C30     24.084971   20.613320   18.362974 C.3        1 MOL1         0.0138
     102    H48     25.105507   20.979915   18.189406 H          1 MOL1         0.0794
     103    H49     23.438776   21.486816   18.523332 H          1 MOL1         0.0794
     104    O25     23.624012   19.865817   17.235773 O.3        1 MOL1        -0.5486
     105    H50     24.160262   19.042653   17.219579 H          1 MOL1         0.3769
     106    C31     21.375518   14.203428   22.215500 C.3        1 MOL1         0.2972
     107    H51     20.959194   13.270191   22.616180 H          1 MOL1         0.0751
     108    O26     20.350672   15.037711   21.639334 O.3        1 MOL1        -0.3740
     109    C32     22.091671   14.992281   23.339335 C.3        1 MOL1         0.1003
     110    H52     22.897176   14.351183   23.720566 H          1 MOL1         0.0783
     111    O27     21.194145   15.310487   24.415495 O.3        1 MOL1        -0.5519
     112    H53     20.370524   14.783065   24.274125 H          1 MOL1         0.3769
     113    C33     22.728245   16.287339   22.786913 C.3        1 MOL1         0.1053
     114    H54     21.917532   16.964969   22.497524 H          1 MOL1         0.0783
     115    O28     23.504730   16.888683   23.825707 O.3        1 MOL1        -0.5519
     116    H55     22.918959   16.864488   24.616045 H          1 MOL1         0.3769
     117    C34     23.597273   16.023141   21.529119 C.3        1 MOL1         0.1018
     118    H56     24.559157   15.595409   21.841141 H          1 MOL1         0.0783
     119    C35     22.902078   15.075194   20.511894 C.3        1 MOL1         0.1043
     120    H57     22.093218   15.633480   20.022731 H          1 MOL1         0.0783
     121    O29     22.351436   13.919071   21.190992 O.3        1 MOL1        -0.3740
     122    C36     23.851035   14.567563   19.403793 C.3        1 MOL1         0.0138
     123    H58     24.194658   15.423440   18.807697 H          1 MOL1         0.0794
     124    H59     23.287990   13.906181   18.731693 H          1 MOL1         0.0794
     125    O30     24.971154   13.873471   19.960179 O.3        1 MOL1        -0.5486
     126    H60     24.600486   13.142893   20.503721 H          1 MOL1         0.3769
     127    C1      18.749217   19.092688   24.473993 C.3        1 MOL1        -0.2426
     128    H1      17.808434   18.532210   24.404468 H          1 MOL1         0.0959
     129    H2      19.192849   18.883380   25.455764 H          1 MOL1         0.0959
     130    H3      18.514444   20.163903   24.430594 H          1 MOL1         0.0959
     131    C2      19.719167   18.688268   23.344857 C.3        1 MOL1        -0.1410
     132    H4      19.926533   17.612770   23.421126 H          1 MOL1         0.0948
     133    H5      20.678651   19.206895   23.479987 H          1 MOL1         0.0948
     134    C3      19.134990   19.006840   21.952168 C.3        1 MOL1        -0.1435
     135    H6      18.198099   18.451514   21.825966 H          1 MOL1         0.0948
     136    H7      18.883219   20.073589   21.891845 H          1 MOL1         0.0948
     137    C4      20.109499   18.642691   20.810541 C.3        1 MOL1        -0.1435
     138    H8      20.409785   17.592441   20.908104 H          1 MOL1         0.0948
     139    H9      21.023540   19.245111   20.899622 H          1 MOL1         0.0948
     140    C5      19.468559   18.858344   19.421993 C.3        1 MOL1        -0.1435
     141    H10     18.533858   18.288980   19.358483 H          1 MOL1         0.0948
     142    H11     19.212505   19.916589   19.294395 H          1 MOL1         0.0948
     143    C6      20.390574   18.402785   18.272257 C.3        1 MOL1        -0.1500
     144    H12     20.727346   17.376655   18.470349 H          1 MOL1         0.0948
     145    H13     21.287622   19.031787   18.240915 H          1 MOL1         0.0948
     146    C7      19.677891   18.434008   16.903958 C.3        1 MOL1         0.1162
     147    H14     18.763096   17.836108   16.978971 H          1 MOL1         0.0910
     148    C8      20.577874   17.807399   15.828042 C.3        1 MOL1        -0.2491
     149    H15     21.517339   18.364926   15.723246 H          1 MOL1         0.0959
     150    H16     20.071240   17.798498   14.855496 H          1 MOL1         0.0959
     151    H17     20.820315   16.768738   16.085948 H          1 MOL1         0.0959
     152    N1      19.258351   19.820868   16.496172 N.4        1 MOL1        -0.5987
     153    H18     18.806479   19.814982   15.578436 H          1 MOL1         0.3605
     154    H19     18.577651   20.233802   17.152831 H          1 MOL1         0.3605
     155    H20     20.061203   20.452656   16.444708 H          1 MOL1         0.3605
@<TRIPOS>BOND
    1     1     2    1
    2     1     3    1
    3     1     4    1
    4     4     5    1
    5     4     6    1
    6     6     7    1
    7     4     8    1
    8     8     9    1
    9     8    10    1
   10    10    11    1
   11     8    12    1
   12    12    13    1
   13    12    14    1
   14    14    15    1
   15     1    16    1
   16    14    16    1
   17    14    17    1
   18    17    18    1
   19    17    19    1
   20    17    20    1
   21    20    21    1
   22    22    23    1
   23    22    24    1
   24    22    25    1
   25    25    26    1
   26    25    27    1
   27    27    28    1
   28    25    29    1
   29    29    30    1
   30    29    31    1
   31    31    32    1
   32     3    33    1
   33    29    33    1
   34    33    34    1
   35    33    35    1
   36    35    36    1
   37    22    37    1
   38    35    37    1
   39    35    38    1
   40    38    39    1
   41    38    40    1
   42    38    41    1
   43    41    42    1
   44    43    44    1
   45    43    45    1
   46    43    46    1
   47    46    47    1
   48    46    48    1
   49    48    49    1
   50    46    50    1
   51    50    51    1
   52    50    52    1
   53    52    53    1
   54    24    54    1
   55    50    54    1
   56    54    55    1
   57    54    56    1
   58    56    57    1
   59    43    58    1
   60    56    58    1
   61    56    59    1
   62    59    60    1
   63    59    61    1
   64    59    62    1
   65    62    63    1
   66    64    65    1
   67    64    66    1
   68    64    67    1
   69    67    68    1
   70    67    69    1
   71    69    70    1
   72    67    71    1
   73    71    72    1
   74    71    73    1
   75    73    74    1
   76    45    75    1
   77    71    75    1
   78    75    76    1
   79    75    77    1
   80    77    78    1
   81    64    79    1
   82    77    79    1
   83    77    80    1
   84    80    81    1
   85    80    82    1
   86    80    83    1
   87    83    84    1
   88    85    86    1
   89    85    87    1
   90    85    88    1
   91    88    89    1
   92    88    90    1
   93    90    91    1
   94    88    92    1
   95    92    93    1
   96    92    94    1
   97    94    95    1
   98    66    96    1
   99    92    96    1
  100    96    97    1
  101    96    98    1
  102    98    99    1
  103    85   100    1
  104    98   100    1
  105    98   101    1
  106   101   102    1
  107   101   103    1
  108   101   104    1
  109   104   105    1
  110   106   107    1
  111    12   108    1
  112   106   108    1
  113   106   109    1
  114   109   110    1
  115   109   111    1
  116   111   112    1
  117   109   113    1
  118   113   114    1
  119   113   115    1
  120   115   116    1
  121    87   117    1
  122   113   117    1
  123   117   118    1
  124   117   119    1
  125   119   120    1
  126   106   121    1
  127   119   121    1
  128   119   122    1
  129   122   123    1
  130   122   124    1
  131   122   125    1
  132   125   126    1
  133   127   128    1
  134   127   129    1
  135   127   130    1
  136   127   131    1
  137   131   132    1
  138   131   133    1
  139   131   134    1
  140   134   135    1
  141   134   136    1
  142   134   137    1
  143   137   138    1
  144   137   139    1
  145   137   140    1
  146   140   141    1
  147   140   142    1
  148   140   143    1
  149   143   144    1
  150   143   145    1
  151   143   146    1
  152   146   147    1
  153   146   148    1
  154   148   149    1
  155   148   150    1
  156   148   151    1
  157   146   152    1
  158   152   153    1
  159   152   154    1
  160   152   155    1
@<TRIPOS>SUBSTRUCTURE
       1 MOL1            1 RESIDUE      1      MOL     
       2 MOL1          155 RESIDUE      1      MOL     
@<SCITEGIC>MOL_PROPERTY
VM2 Rank
SciTegic.value.IntegerValue
4

@<SCITEGIC>MOL_PROPERTY
Conf_Id
SciTegic.value.IntegerValue
18824

@<SCITEGIC>MOL_PROPERTY
Probability
SciTegic.value.DoubleValue
1.34

@<SCITEGIC>MOL_PROPERTY
Sum Probability
SciTegic.value.DoubleValue
7.35

@<SCITEGIC>MOL_PROPERTY
Delta G
SciTegic.value.DoubleValue
0.487

@<SCITEGIC>MOL_PROPERTY
G
SciTegic.value.DoubleValue
551.170

@<SCITEGIC>MOL_PROPERTY
E
SciTegic.value.DoubleValue
341.809

@<SCITEGIC>MOL_PROPERTY
-TS
SciTegic.value.DoubleValue
209.360

@<SCITEGIC>MOL_PROPERTY
U+W
SciTegic.value.DoubleValue
204.990

@<SCITEGIC>MOL_PROPERTY
U
SciTegic.value.DoubleValue
267.519

@<SCITEGIC>MOL_PROPERTY
W
SciTegic.value.DoubleValue
-62.529

@<SCITEGIC>MOL_PROPERTY
W(PB)
SciTegic.value.DoubleValue
-68.535

@<SCITEGIC>MOL_PROPERTY
W(SA)
SciTegic.value.DoubleValue
6.006

@<SCITEGIC>MOL_PROPERTY
Valence
SciTegic.value.DoubleValue
147.997

@<SCITEGIC>MOL_PROPERTY
Coulomb
SciTegic.value.DoubleValue
149.088

@<SCITEGIC>MOL_PROPERTY
VdW
SciTegic.value.DoubleValue
-29.566

@<SCITEGIC>MOL_PROPERTY
VdW6
SciTegic.value.DoubleValue
-186.218

@<SCITEGIC>MOL_PROPERTY
VdW12
SciTegic.value.DoubleValue
156.652

@<SCITEGIC>MOL_PROPERTY
Bond
SciTegic.value.DoubleValue
4.245

@<SCITEGIC>MOL_PROPERTY
Angle
SciTegic.value.DoubleValue
10.244

@<SCITEGIC>MOL_PROPERTY
Pdih
SciTegic.value.DoubleValue
133.508

@<SCITEGIC>MOL_PROPERTY
Idih
SciTegic.value.DoubleValue
0.000

@<SCITEGIC>MOL_PROPERTY
Tether
SciTegic.value.DoubleValue
0.000

@<TRIPOS>MOLECULE
CD_guest-s15_vm2_rndm.mol2 : vm2 host+ligand conformer 5
         155         160           2
SMALL
USER_CHARGES
 
@<TRIPOS>ATOM
       1    C1      16.197022   14.945465   21.374280 C.3        1 MOL1         0.2972
       2    H1      15.136364   14.705511   21.227875 H          1 MOL1         0.0751
       3    O1      16.421909   16.365398   21.480273 O.3        1 MOL1        -0.3740
       4    C2      16.719364   14.286351   22.673556 C.3        1 MOL1         0.1003
       5    H2      16.613705   13.199796   22.557776 H          1 MOL1         0.0783
       6    O2      15.954848   14.715172   23.811419 O.3        1 MOL1        -0.5519
       7    H3      15.643529   15.636899   23.626941 H          1 MOL1         0.3769
       8    C3      18.220076   14.600580   22.879336 C.3        1 MOL1         0.1053
       9    H4      18.316828   15.675649   23.083809 H          1 MOL1         0.0783
      10    O3      18.706002   13.849851   23.996460 O.3        1 MOL1        -0.5519
      11    H5      17.998352   13.925721   24.676481 H          1 MOL1         0.3769
      12    C4      19.047902   14.274023   21.607925 C.3        1 MOL1         0.1018
      13    H6      19.170373   13.186448   21.515789 H          1 MOL1         0.0783
      14    C5      18.392752   14.808006   20.305926 C.3        1 MOL1         0.1043
      15    H7      18.498302   15.899858   20.272515 H          1 MOL1         0.0783
      16    O4      16.991292   14.438467   20.281458 O.3        1 MOL1        -0.3740
      17    C6      19.059208   14.216195   19.045806 C.3        1 MOL1         0.0138
      18    H8      18.867995   13.135566   19.006489 H          1 MOL1         0.0794
      19    H9      20.145901   14.359271   19.108975 H          1 MOL1         0.0794
      20    O5      18.557320   14.858314   17.872999 O.3        1 MOL1        -0.5486
      21    H10     17.581277   14.763417   17.897082 H          1 MOL1         0.3769
      22    C7      14.717504   20.095111   20.902262 C.3        1 MOL1         0.2972
      23    H11     14.058339   20.938772   20.662351 H          1 MOL1         0.0751
      24    O6      16.047664   20.530906   21.253617 O.3        1 MOL1        -0.3740
      25    C8      14.139550   19.287488   22.092074 C.3        1 MOL1         0.1003
      26    H12     13.156332   18.907984   21.784886 H          1 MOL1         0.0783
      27    O7      13.979097   20.115947   23.253761 O.3        1 MOL1        -0.5519
      28    H13     14.700839   20.794338   23.236526 H          1 MOL1         0.3769
      29    C9      15.037999   18.070512   22.414135 C.3        1 MOL1         0.1053
      30    H14     15.997106   18.447068   22.793852 H          1 MOL1         0.0783
      31    O8      14.410031   17.261783   23.413053 O.3        1 MOL1        -0.5519
      32    H15     14.077217   17.900532   24.083003 H          1 MOL1         0.3769
      33    C10     15.316372   17.224404   21.146802 C.3        1 MOL1         0.1018
      34    H16     14.412280   16.660273   20.882103 H          1 MOL1         0.0783
      35    C11     15.750188   18.097490   19.940000 C.3        1 MOL1         0.1043
      36    H17     16.755322   18.479159   20.140721 H          1 MOL1         0.0783
      37    O9      14.820004   19.197192   19.777225 O.3        1 MOL1        -0.3740
      38    C12     15.788795   17.311433   18.613527 C.3        1 MOL1         0.0138
      39    H18     14.770188   17.006829   18.338860 H          1 MOL1         0.0794
      40    H19     16.384076   16.401934   18.751008 H          1 MOL1         0.0794
      41    O10     16.373935   18.109700   17.583144 O.3        1 MOL1        -0.5486
      42    H20     15.833285   18.925736   17.520264 H          1 MOL1         0.3769
      43    C13     18.501985   23.923377   21.220403 C.3        1 MOL1         0.2972
      44    H21     18.884061   24.942742   21.079976 H          1 MOL1         0.0751
      45    O11     19.549448   23.008092   21.582125 O.3        1 MOL1        -0.3740
      46    C14     17.419192   23.884020   22.331544 C.3        1 MOL1         0.1003
      47    H22     16.627349   24.585709   22.038981 H          1 MOL1         0.0783
      48    O12     17.962036   24.287202   23.599923 O.3        1 MOL1        -0.5519
      49    H23     18.766123   23.733747   23.768309 H          1 MOL1         0.3769
      50    C15     16.787985   22.474195   22.449490 C.3        1 MOL1         0.1053
      51    H24     17.550395   21.794131   22.851585 H          1 MOL1         0.0783
      52    O13     15.671797   22.530455   23.342021 O.3        1 MOL1        -0.5519
      53    H25     15.983525   23.058961   24.110428 H          1 MOL1         0.3769
      54    C16     16.340409   21.929412   21.069217 C.3        1 MOL1         0.1018
      55    H26     15.465605   22.495657   20.723379 H          1 MOL1         0.0783
      56    C17     17.478549   22.055123   20.024019 C.3        1 MOL1         0.1043
      57    H27     18.301018   21.394177   20.318868 H          1 MOL1         0.0783
      58    O14     17.916125   23.435913   19.994782 O.3        1 MOL1        -0.3740
      59    C18     17.064162   21.664742   18.592375 C.3        1 MOL1         0.0138
      60    H28     16.282737   22.348774   18.235675 H          1 MOL1         0.0794
      61    H29     16.648007   20.650772   18.600889 H          1 MOL1         0.0794
      62    O15     18.210852   21.710425   17.737960 O.3        1 MOL1        -0.5486
      63    H30     18.558099   22.627080   17.812170 H          1 MOL1         0.3769
      64    C19     23.575968   22.690701   22.136358 C.3        1 MOL1         0.2972
      65    H31     24.652158   22.779653   22.332972 H          1 MOL1         0.0751
      66    O16     23.249558   21.453007   21.472666 O.3        1 MOL1        -0.3740
      67    C20     22.773412   22.771445   23.459121 C.3        1 MOL1         0.1003
      68    H32     22.949716   23.765382   23.890538 H          1 MOL1         0.0783
      69    O17     23.196560   21.765986   24.394376 O.3        1 MOL1        -0.5519
      70    H33     23.988262   21.320438   24.005827 H          1 MOL1         0.3769
      71    C21     21.261819   22.625773   23.176002 C.3        1 MOL1         0.1053
      72    H34     21.091715   21.594482   22.841738 H          1 MOL1         0.0783
      73    O18     20.519420   22.870522   24.375002 O.3        1 MOL1        -0.5519
      74    H35     20.991828   22.357119   25.067683 H          1 MOL1         0.3769
      75    C22     20.776934   23.584030   22.059373 C.3        1 MOL1         0.1018
      76    H36     20.620876   24.578878   22.497556 H          1 MOL1         0.0783
      77    C23     21.748351   23.674150   20.844582 C.3        1 MOL1         0.1043
      78    H37     21.625095   22.763808   20.243266 H          1 MOL1         0.0783
      79    O19     23.122067   23.772358   21.297674 O.3        1 MOL1        -0.3740
      80    C24     21.477078   24.877143   19.913573 C.3        1 MOL1         0.0138
      81    H38     20.499830   24.746070   19.431154 H          1 MOL1         0.0794
      82    H39     22.232465   24.882867   19.116335 H          1 MOL1         0.0794
      83    O20     21.510285   26.110926   20.636492 O.3        1 MOL1        -0.5486
      84    H40     22.400940   26.166031   21.049010 H          1 MOL1         0.3769
      85    C25     24.905229   17.827715   20.441801 C.3        1 MOL1         0.2972
      86    H41     25.503001   16.993879   20.053499 H          1 MOL1         0.0751
      87    O21     23.596460   17.384132   20.866349 O.3        1 MOL1        -0.3740
      88    C26     25.644456   18.548873   21.601219 C.3        1 MOL1         0.1003
      89    H42     26.564093   18.972766   21.177041 H          1 MOL1         0.0783
      90    O22     26.003637   17.652604   22.662304 O.3        1 MOL1        -0.5519
      91    H43     25.157924   17.364279   23.089141 H          1 MOL1         0.3769
      92    C27     24.789590   19.720247   22.138492 C.3        1 MOL1         0.1053
      93    H44     23.882884   19.300286   22.595693 H          1 MOL1         0.0783
      94    O23     25.540028   20.438602   23.123801 O.3        1 MOL1        -0.5519
      95    H45     26.005203   19.746294   23.646209 H          1 MOL1         0.3769
      96    C28     24.352991   20.668671   20.989152 C.3        1 MOL1         0.1018
      97    H46     25.197178   21.301831   20.684790 H          1 MOL1         0.0783
      98    C29     23.821273   19.909084   19.743558 C.3        1 MOL1         0.1043
      99    H47     22.820390   19.526481   19.972226 H          1 MOL1         0.0783
     100    O24     24.712711   18.815498   19.407323 O.3        1 MOL1        -0.3740
     101    C30     23.710585   20.829293   18.509014 C.3        1 MOL1         0.0138
     102    H48     24.713087   21.174688   18.223233 H          1 MOL1         0.0794
     103    H49     23.115923   21.714209   18.770083 H          1 MOL1         0.0794
     104    O25     23.093313   20.131050   17.425419 O.3        1 MOL1        -0.5486
     105    H50     23.639240   19.326214   17.283258 H          1 MOL1         0.3769
     106    C31     21.402970   14.151542   22.251149 C.3        1 MOL1         0.2972
     107    H51     21.052750   13.190288   22.649013 H          1 MOL1         0.0751
     108    O26     20.315066   14.943954   21.737982 O.3        1 MOL1        -0.3740
     109    C32     22.131291   14.953878   23.358027 C.3        1 MOL1         0.1003
     110    H52     22.981372   14.345080   23.692537 H          1 MOL1         0.0783
     111    O27     21.268732   15.213901   24.477447 O.3        1 MOL1        -0.5519
     112    H53     20.414636   14.746931   24.304649 H          1 MOL1         0.3769
     113    C33     22.683308   16.286564   22.804782 C.3        1 MOL1         0.1053
     114    H54     21.825303   16.929832   22.581360 H          1 MOL1         0.0783
     115    O28     23.489433   16.898813   23.814471 O.3        1 MOL1        -0.5519
     116    H55     22.952134   16.827135   24.635693 H          1 MOL1         0.3769
     117    C34     23.496918   16.089273   21.496693 C.3        1 MOL1         0.1018
     118    H56     24.482294   15.674035   21.746154 H          1 MOL1         0.0783
     119    C35     22.780450   15.147163   20.489943 C.3        1 MOL1         0.1043
     120    H57     21.920891   15.679588   20.062466 H          1 MOL1         0.0783
     121    O29     22.341881   13.945736   21.175096 O.3        1 MOL1        -0.3740
     122    C36     23.696546   14.711414   19.328100 C.3        1 MOL1         0.0138
     123    H58     24.558110   14.161386   19.729788 H          1 MOL1         0.0794
     124    H59     24.075548   15.602243   18.810436 H          1 MOL1         0.0794
     125    O30     22.964306   13.897206   18.410764 O.3        1 MOL1        -0.5486
     126    H60     22.560979   13.179086   18.947084 H          1 MOL1         0.3769
     127    C1      18.730918   19.553789   24.618451 C.3        1 MOL1        -0.2426
     128    H1      18.999401   19.239829   25.635204 H          1 MOL1         0.0959
     129    H2      18.844240   20.643694   24.562184 H          1 MOL1         0.0959
     130    H3      17.672332   19.311573   24.458510 H          1 MOL1         0.0959
     131    C2      19.626193   18.848752   23.578508 C.3        1 MOL1        -0.1410
     132    H4      19.525197   17.759860   23.688482 H          1 MOL1         0.0948
     133    H5      20.679896   19.090734   23.778258 H          1 MOL1         0.0948
     134    C3      19.258511   19.266703   22.139138 C.3        1 MOL1        -0.1435
     135    H6      18.198136   19.051666   21.957402 H          1 MOL1         0.0948
     136    H7      19.389119   20.349135   22.028440 H          1 MOL1         0.0948
     137    C4      20.117232   18.529638   21.092198 C.3        1 MOL1        -0.1435
     138    H8      19.949124   17.451863   21.196509 H          1 MOL1         0.0948
     139    H9      21.180262   18.708800   21.297054 H          1 MOL1         0.0948
     140    C5      19.794207   18.965818   19.647185 C.3        1 MOL1        -0.1435
     141    H10     18.711316   18.953414   19.484023 H          1 MOL1         0.0948
     142    H11     20.125058   20.002875   19.500136 H          1 MOL1         0.0948
     143    C6      20.461314   18.037112   18.606775 C.3        1 MOL1        -0.1500
     144    H12     20.208729   16.995025   18.838802 H          1 MOL1         0.0948
     145    H13     21.553017   18.115119   18.680946 H          1 MOL1         0.0948
     146    C7      20.007091   18.329485   17.161814 C.3        1 MOL1         0.1162
     147    H14     18.928331   18.151824   17.094987 H          1 MOL1         0.0910
     148    C8      20.715905   17.376147   16.187449 C.3        1 MOL1        -0.2491
     149    H15     21.802588   17.524744   16.207227 H          1 MOL1         0.0959
     150    H16     20.364724   17.539067   15.161506 H          1 MOL1         0.0959
     151    H17     20.508587   16.330440   16.448745 H          1 MOL1         0.0959
     152    N1      20.234877   19.761926   16.764231 N.4        1 MOL1        -0.5987
     153    H18     20.049226   19.907624   15.769583 H          1 MOL1         0.3605
     154    H19     19.607680   20.397450   17.281732 H          1 MOL1         0.3605
     155    H20     21.209612   20.045730   16.950985 H          1 MOL1         0.3605
@<TRIPOS>BOND
    1     1     2    1
    2     1     3    1
    3     1     4    1
    4     4     5    1
    5     4     6    1
    6     6     7    1
    7     4     8    1
    8     8     9    1
    9     8    10    1
   10    10    11    1
   11     8    12    1
   12    12    13    1
   13    12    14    1
   14    14    15    1
   15     1    16    1
   16    14    16    1
   17    14    17    1
   18    17    18    1
   19    17    19    1
   20    17    20    1
   21    20    21    1
   22    22    23    1
   23    22    24    1
   24    22    25    1
   25    25    26    1
   26    25    27    1
   27    27    28    1
   28    25    29    1
   29    29    30    1
   30    29    31    1
   31    31    32    1
   32     3    33    1
   33    29    33    1
   34    33    34    1
   35    33    35    1
   36    35    36    1
   37    22    37    1
   38    35    37    1
   39    35    38    1
   40    38    39    1
   41    38    40    1
   42    38    41    1
   43    41    42    1
   44    43    44    1
   45    43    45    1
   46    43    46    1
   47    46    47    1
   48    46    48    1
   49    48    49    1
   50    46    50    1
   51    50    51    1
   52    50    52    1
   53    52    53    1
   54    24    54    1
   55    50    54    1
   56    54    55    1
   57    54    56    1
   58    56    57    1
   59    43    58    1
   60    56    58    1
   61    56    59    1
   62    59    60    1
   63    59    61    1
   64    59    62    1
   65    62    63    1
   66    64    65    1
   67    64    66    1
   68    64    67    1
   69    67    68    1
   70    67    69    1
   71    69    70    1
   72    67    71    1
   73    71    72    1
   74    71    73    1
   75    73    74    1
   76    45    75    1
   77    71    75    1
   78    75    76    1
   79    75    77    1
   80    77    78    1
   81    64    79    1
   82    77    79    1
   83    77    80    1
   84    80    81    1
   85    80    82    1
   86    80    83    1
   87    83    84    1
   88    85    86    1
   89    85    87    1
   90    85    88    1
   91    88    89    1
   92    88    90    1
   93    90    91    1
   94    88    92    1
   95    92    93    1
   96    92    94    1
   97    94    95    1
   98    66    96    1
   99    92    96    1
  100    96    97    1
  101    96    98    1
  102    98    99    1
  103    85   100    1
  104    98   100    1
  105    98   101    1
  106   101   102    1
  107   101   103    1
  108   101   104    1
  109   104   105    1
  110   106   107    1
  111    12   108    1
  112   106   108    1
  113   106   109    1
  114   109   110    1
  115   109   111    1
  116   111   112    1
  117   109   113    1
  118   113   114    1
  119   113   115    1
  120   115   116    1
  121    87   117    1
  122   113   117    1
  123   117   118    1
  124   117   119    1
  125   119   120    1
  126   106   121    1
  127   119   121    1
  128   119   122    1
  129   122   123    1
  130   122   124    1
  131   122   125    1
  132   125   126    1
  133   127   128    1
  134   127   129    1
  135   127   130    1
  136   127   131    1
  137   131   132    1
  138   131   133    1
  139   131   134    1
  140   134   135    1
  141   134   136    1
  142   134   137    1
  143   137   138    1
  144   137   139    1
  145   137   140    1
  146   140   141    1
  147   140   142    1
  148   140   143    1
  149   143   144    1
  150   143   145    1
  151   143   146    1
  152   146   147    1
  153   146   148    1
  154   148   149    1
  155   148   150    1
  156   148   151    1
  157   146   152    1
  158   152   153    1
  159   152   154    1
  160   152   155    1
@<TRIPOS>SUBSTRUCTURE
       1 MOL1            1 RESIDUE      1      MOL     
       2 MOL1          155 RESIDUE      1      MOL     
@<SCITEGIC>MOL_PROPERTY
VM2 Rank
SciTegic.value.IntegerValue
5

@<SCITEGIC>MOL_PROPERTY
Conf_Id
SciTegic.value.IntegerValue
20636

@<SCITEGIC>MOL_PROPERTY
Probability
SciTegic.value.DoubleValue
1.14

@<SCITEGIC>MOL_PROPERTY
Sum Probability
SciTegic.value.DoubleValue
8.49

@<SCITEGIC>MOL_PROPERTY
Delta G
SciTegic.value.DoubleValue
0.586

@<SCITEGIC>MOL_PROPERTY
G
SciTegic.value.DoubleValue
551.268

@<SCITEGIC>MOL_PROPERTY
E
SciTegic.value.DoubleValue
341.315

@<SCITEGIC>MOL_PROPERTY
-TS
SciTegic.value.DoubleValue
209.953

@<SCITEGIC>MOL_PROPERTY
U+W
SciTegic.value.DoubleValue
204.496

@<SCITEGIC>MOL_PROPERTY
U
SciTegic.value.DoubleValue
265.002

@<SCITEGIC>MOL_PROPERTY
W
SciTegic.value.DoubleValue
-60.506

@<SCITEGIC>MOL_PROPERTY
W(PB)
SciTegic.value.DoubleValue
-66.476

@<SCITEGIC>MOL_PROPERTY
W(SA)
SciTegic.value.DoubleValue
5.971

@<SCITEGIC>MOL_PROPERTY
Valence
SciTegic.value.DoubleValue
150.059

@<SCITEGIC>MOL_PROPERTY
Coulomb
SciTegic.value.DoubleValue
145.311

@<SCITEGIC>MOL_PROPERTY
VdW
SciTegic.value.DoubleValue
-30.368

@<SCITEGIC>MOL_PROPERTY
VdW6
SciTegic.value.DoubleValue
-187.010

@<SCITEGIC>MOL_PROPERTY
VdW12
SciTegic.value.DoubleValue
156.642

@<SCITEGIC>MOL_PROPERTY
Bond
SciTegic.value.DoubleValue
4.183

@<SCITEGIC>MOL_PROPERTY
Angle
SciTegic.value.DoubleValue
9.999

@<SCITEGIC>MOL_PROPERTY
Pdih
SciTegic.value.DoubleValue
135.877

@<SCITEGIC>MOL_PROPERTY
Idih
SciTegic.value.DoubleValue
0.000

@<SCITEGIC>MOL_PROPERTY
Tether
SciTegic.value.DoubleValue
0.000

@<TRIPOS>MOLECULE
CD_guest-s15_vm2_rndm.mol2 : vm2 host+ligand conformer 6
         155         160           2
SMALL
USER_CHARGES
 
@<TRIPOS>ATOM
       1    C1      16.237441   15.034218   20.572738 C.3        1 MOL1         0.2972
       2    H1      15.180986   14.936612   20.291068 H          1 MOL1         0.0751
       3    O1      16.596891   16.412466   20.814173 O.3        1 MOL1        -0.3740
       4    C2      16.571843   14.168993   21.816272 C.3        1 MOL1         0.1003
       5    H2      16.414246   13.121442   21.527981 H          1 MOL1         0.0783
       6    O2      15.723332   14.469777   22.933491 O.3        1 MOL1        -0.5519
       7    H3      15.931672   15.398283   23.208203 H          1 MOL1         0.3769
       8    C3      18.060381   14.335009   22.204766 C.3        1 MOL1         0.1053
       9    H4      18.204729   15.363940   22.563384 H          1 MOL1         0.0783
      10    O3      18.374667   13.407960   23.248946 O.3        1 MOL1        -0.5519
      11    H5      17.597054   13.428955   23.852040 H          1 MOL1         0.3769
      12    C4      19.002577   14.112267   20.989723 C.3        1 MOL1         0.1018
      13    H6      19.122950   13.035936   20.807469 H          1 MOL1         0.0783
      14    C5      18.498678   14.782362   19.682858 C.3        1 MOL1         0.1043
      15    H7      18.693555   15.859457   19.742129 H          1 MOL1         0.0783
      16    O4      17.079548   14.543835   19.509441 O.3        1 MOL1        -0.3740
      17    C6      19.227014   14.232129   18.439479 C.3        1 MOL1         0.0138
      18    H8      19.022304   13.157324   18.344742 H          1 MOL1         0.0794
      19    H9      20.310417   14.356522   18.570010 H          1 MOL1         0.0794
      20    O5      18.788827   14.929201   17.272525 O.3        1 MOL1        -0.5486
      21    H10     17.807274   14.860369   17.279076 H          1 MOL1         0.3769
      22    C7      15.037354   20.142705   21.767456 C.3        1 MOL1         0.2972
      23    H11     14.392673   20.975524   22.075082 H          1 MOL1         0.0751
      24    O6      16.260395   20.612583   21.165591 O.3        1 MOL1        -0.3740
      25    C8      15.385982   19.248446   22.986849 C.3        1 MOL1         0.1003
      26    H12     14.436611   18.878544   23.395568 H          1 MOL1         0.0783
      27    O7      16.082078   19.983033   24.006786 O.3        1 MOL1        -0.5519
      28    H13     15.857645   20.935967   23.880930 H          1 MOL1         0.3769
      29    C9      16.232252   18.028836   22.555902 C.3        1 MOL1         0.1053
      30    H14     17.210234   18.395791   22.223028 H          1 MOL1         0.0783
      31    O8      16.399338   17.165351   23.683805 O.3        1 MOL1        -0.5519
      32    H15     16.645516   17.770842   24.419325 H          1 MOL1         0.3769
      33    C10     15.580952   17.266828   21.374788 C.3        1 MOL1         0.1018
      34    H16     14.722570   16.694512   21.750712 H          1 MOL1         0.0783
      35    C11     15.121333   18.226504   20.242314 C.3        1 MOL1         0.1043
      36    H17     16.014817   18.623021   19.741619 H          1 MOL1         0.0783
      37    O9      14.350355   19.319392   20.800498 O.3        1 MOL1        -0.3740
      38    C12     14.251904   17.534317   19.168997 C.3        1 MOL1         0.0138
      39    H18     14.856286   16.775452   18.654428 H          1 MOL1         0.0794
      40    H19     13.956394   18.279886   18.418724 H          1 MOL1         0.0794
      41    O10     13.093695   16.929579   19.751655 O.3        1 MOL1        -0.5486
      42    H20     12.610994   17.649391   20.215772 H          1 MOL1         0.3769
      43    C13     18.459955   24.129087   20.989318 C.3        1 MOL1         0.2972
      44    H21     18.844107   25.141263   20.807532 H          1 MOL1         0.0751
      45    O11     19.498651   23.226047   21.413888 O.3        1 MOL1        -0.3740
      46    C14     17.362670   24.135294   22.081217 C.3        1 MOL1         0.1003
      47    H22     16.539753   24.761727   21.712972 H          1 MOL1         0.0783
      48    O12     17.854861   24.685496   23.313580 O.3        1 MOL1        -0.5519
      49    H23     18.707658   24.227610   23.525799 H          1 MOL1         0.3769
      50    C15     16.809920   22.706074   22.309324 C.3        1 MOL1         0.1053
      51    H24     17.610975   22.099006   22.753740 H          1 MOL1         0.0783
      52    O13     15.706008   22.789728   23.217529 O.3        1 MOL1        -0.5519
      53    H25     15.980973   23.457615   23.886893 H          1 MOL1         0.3769
      54    C16     16.383675   22.036827   20.968712 C.3        1 MOL1         0.1018
      55    H26     15.437211   22.472176   20.621449 H          1 MOL1         0.0783
      56    C17     17.451764   22.213385   19.856092 C.3        1 MOL1         0.1043
      57    H27     18.312760   21.576308   20.090087 H          1 MOL1         0.0783
      58    O14     17.864813   23.599113   19.786971 O.3        1 MOL1        -0.3740
      59    C18     16.920060   21.808742   18.465497 C.3        1 MOL1         0.0138
      60    H28     16.125663   22.503986   18.162917 H          1 MOL1         0.0794
      61    H29     16.480686   20.804075   18.523553 H          1 MOL1         0.0794
      62    O15     17.986736   21.816350   17.514664 O.3        1 MOL1        -0.5486
      63    H30     18.389555   22.710331   17.563214 H          1 MOL1         0.3769
      64    C19     23.523642   22.838435   22.046194 C.3        1 MOL1         0.2972
      65    H31     24.601482   22.940443   22.227029 H          1 MOL1         0.0751
      66    O16     23.164052   21.484231   21.700423 O.3        1 MOL1        -0.3740
      67    C20     22.733994   23.260858   23.309704 C.3        1 MOL1         0.1003
      68    H32     22.955113   24.319841   23.496299 H          1 MOL1         0.0783
      69    O17     23.132493   22.487920   24.452778 O.3        1 MOL1        -0.5519
      70    H33     23.652670   21.716305   24.116394 H          1 MOL1         0.3769
      71    C21     21.213169   23.125387   23.074000 C.3        1 MOL1         0.1053
      72    H34     20.985166   22.056609   23.004555 H          1 MOL1         0.0783
      73    O18     20.505021   23.686087   24.183384 O.3        1 MOL1        -0.5519
      74    H35     20.960241   23.328132   24.978365 H          1 MOL1         0.3769
      75    C22     20.764090   23.815700   21.759973 C.3        1 MOL1         0.1018
      76    H36     20.679076   24.894418   21.947505 H          1 MOL1         0.0783
      77    C23     21.719724   23.554999   20.560057 C.3        1 MOL1         0.1043
      78    H37     21.546227   22.530781   20.204521 H          1 MOL1         0.0783
      79    O19     23.103572   23.699026   20.967950 O.3        1 MOL1        -0.3740
      80    C24     21.479329   24.504834   19.365723 C.3        1 MOL1         0.0138
      81    H38     20.472489   24.329721   18.964502 H          1 MOL1         0.0794
      82    H39     22.194534   24.259053   18.569315 H          1 MOL1         0.0794
      83    O20     21.623116   25.873059   19.757305 O.3        1 MOL1        -0.5486
      84    H40     22.528678   25.959310   20.130211 H          1 MOL1         0.3769
      85    C25     24.857328   17.766605   20.910235 C.3        1 MOL1         0.2972
      86    H41     25.516037   16.942386   20.607652 H          1 MOL1         0.0751
      87    O21     23.515613   17.301516   21.160415 O.3        1 MOL1        -0.3740
      88    C26     25.411856   18.492401   22.167445 C.3        1 MOL1         0.1003
      89    H42     26.394250   18.899030   21.894176 H          1 MOL1         0.0783
      90    O22     25.577110   17.601927   23.280861 O.3        1 MOL1        -0.5519
      91    H43     24.675193   17.270239   23.521232 H          1 MOL1         0.3769
      92    C27     24.500280   19.680192   22.557279 C.3        1 MOL1         0.1053
      93    H44     23.530682   19.276225   22.880189 H          1 MOL1         0.0783
      94    O23     25.103809   20.411991   23.628769 O.3        1 MOL1        -0.5519
      95    H45     25.446534   19.726918   24.245996 H          1 MOL1         0.3769
      96    C28     24.256721   20.615867   21.346497 C.3        1 MOL1         0.1018
      97    H46     25.173948   21.179965   21.130261 H          1 MOL1         0.0783
      98    C29     23.846383   19.836401   20.069250 C.3        1 MOL1         0.1043
      99    H47     22.826469   19.452896   20.195957 H          1 MOL1         0.0783
     100    O24     24.780193   18.747257   19.854102 O.3        1 MOL1        -0.3740
     101    C30     23.880979   20.725446   18.808934 C.3        1 MOL1         0.0138
     102    H48     24.907983   21.076084   18.640938 H          1 MOL1         0.0794
     103    H49     23.249499   21.608333   18.966792 H          1 MOL1         0.0794
     104    O25     23.413596   19.987776   17.678740 O.3        1 MOL1        -0.5486
     105    H50     23.935676   19.156289   17.665370 H          1 MOL1         0.3769
     106    C31     21.263379   13.920414   21.920152 C.3        1 MOL1         0.2972
     107    H51     20.873907   12.926636   22.176336 H          1 MOL1         0.0751
     108    O26     20.259498   14.744251   21.294864 O.3        1 MOL1        -0.3740
     109    C32     21.792380   14.638980   23.188411 C.3        1 MOL1         0.1003
     110    H52     22.616719   14.032373   23.585546 H          1 MOL1         0.0783
     111    O27     20.777819   14.769308   24.196958 O.3        1 MOL1        -0.5519
     112    H53     19.977170   14.288489   23.874168 H          1 MOL1         0.3769
     113    C33     22.351663   16.032327   22.828075 C.3        1 MOL1         0.1053
     114    H54     21.507630   16.651311   22.501543 H          1 MOL1         0.0783
     115    O28     22.953274   16.607938   23.991597 O.3        1 MOL1        -0.5519
     116    H55     22.304413   16.438622   24.711624 H          1 MOL1         0.3769
     117    C34     23.377376   15.959753   21.668863 C.3        1 MOL1         0.1018
     118    H56     24.324995   15.569334   22.062824 H          1 MOL1         0.0783
     119    C35     22.888990   15.067035   20.491832 C.3        1 MOL1         0.1043
     120    H57     22.095184   15.606361   19.957889 H          1 MOL1         0.0783
     121    O29     22.368983   13.810294   20.998083 O.3        1 MOL1        -0.3740
     122    C36     23.996007   14.740792   19.464893 C.3        1 MOL1         0.0138
     123    H58     24.316237   15.670605   18.976456 H          1 MOL1         0.0794
     124    H59     23.574547   14.092092   18.685314 H          1 MOL1         0.0794
     125    O30     25.112611   14.103060   20.091410 O.3        1 MOL1        -0.5486
     126    H60     24.761002   13.293928   20.525134 H          1 MOL1         0.3769
     127    C1      20.046505   19.058891   23.272752 C.3        1 MOL1        -0.2426
     128    H1      19.426741   18.173378   23.466243 H          1 MOL1         0.0959
     129    H2      21.099506   18.777916   23.397991 H          1 MOL1         0.0959
     130    H3      19.808373   19.810747   24.036288 H          1 MOL1         0.0959
     131    C2      19.790126   19.622827   21.860854 C.3        1 MOL1        -0.1410
     132    H4      20.465485   20.466563   21.677416 H          1 MOL1         0.0948
     133    H5      18.769299   20.019923   21.808384 H          1 MOL1         0.0948
     134    C3      20.000381   18.566929   20.757124 C.3        1 MOL1        -0.1435
     135    H6      21.011240   18.151460   20.843487 H          1 MOL1         0.0948
     136    H7      19.299148   17.733866   20.897422 H          1 MOL1         0.0948
     137    C4      19.817834   19.187005   19.354964 C.3        1 MOL1        -0.1435
     138    H8      20.407605   20.111980   19.287359 H          1 MOL1         0.0948
     139    H9      18.766385   19.468700   19.210423 H          1 MOL1         0.0948
     140    C5      20.254700   18.233297   18.223852 C.3        1 MOL1        -0.1435
     141    H10     21.283193   17.893109   18.409074 H          1 MOL1         0.0948
     142    H11     19.613605   17.344281   18.224823 H          1 MOL1         0.0948
     143    C6      20.190182   18.937227   16.848445 C.3        1 MOL1        -0.1500
     144    H12     20.782834   19.860405   16.900810 H          1 MOL1         0.0948
     145    H13     19.158937   19.245041   16.628923 H          1 MOL1         0.0948
     146    C7      20.736742   18.060070   15.703719 C.3        1 MOL1         0.1162
     147    H14     21.707259   17.659586   16.012124 H          1 MOL1         0.0910
     148    C8      20.944924   18.905519   14.437510 C.3        1 MOL1        -0.2491
     149    H15     19.999777   19.344436   14.094211 H          1 MOL1         0.0959
     150    H16     21.355737   18.294281   13.624710 H          1 MOL1         0.0959
     151    H17     21.651767   19.722707   14.629798 H          1 MOL1         0.0959
     152    N1      19.849105   16.882945   15.406390 N.4        1 MOL1        -0.5987
     153    H18     19.696277   16.286338   16.235158 H          1 MOL1         0.3605
     154    H19     18.926150   17.185433   15.086759 H          1 MOL1         0.3605
     155    H20     20.246649   16.285827   14.676981 H          1 MOL1         0.3605
@<TRIPOS>BOND
    1     1     2    1
    2     1     3    1
    3     1     4    1
    4     4     5    1
    5     4     6    1
    6     6     7    1
    7     4     8    1
    8     8     9    1
    9     8    10    1
   10    10    11    1
   11     8    12    1
   12    12    13    1
   13    12    14    1
   14    14    15    1
   15     1    16    1
   16    14    16    1
   17    14    17    1
   18    17    18    1
   19    17    19    1
   20    17    20    1
   21    20    21    1
   22    22    23    1
   23    22    24    1
   24    22    25    1
   25    25    26    1
   26    25    27    1
   27    27    28    1
   28    25    29    1
   29    29    30    1
   30    29    31    1
   31    31    32    1
   32     3    33    1
   33    29    33    1
   34    33    34    1
   35    33    35    1
   36    35    36    1
   37    22    37    1
   38    35    37    1
   39    35    38    1
   40    38    39    1
   41    38    40    1
   42    38    41    1
   43    41    42    1
   44    43    44    1
   45    43    45    1
   46    43    46    1
   47    46    47    1
   48    46    48    1
   49    48    49    1
   50    46    50    1
   51    50    51    1
   52    50    52    1
   53    52    53    1
   54    24    54    1
   55    50    54    1
   56    54    55    1
   57    54    56    1
   58    56    57    1
   59    43    58    1
   60    56    58    1
   61    56    59    1
   62    59    60    1
   63    59    61    1
   64    59    62    1
   65    62    63    1
   66    64    65    1
   67    64    66    1
   68    64    67    1
   69    67    68    1
   70    67    69    1
   71    69    70    1
   72    67    71    1
   73    71    72    1
   74    71    73    1
   75    73    74    1
   76    45    75    1
   77    71    75    1
   78    75    76    1
   79    75    77    1
   80    77    78    1
   81    64    79    1
   82    77    79    1
   83    77    80    1
   84    80    81    1
   85    80    82    1
   86    80    83    1
   87    83    84    1
   88    85    86    1
   89    85    87    1
   90    85    88    1
   91    88    89    1
   92    88    90    1
   93    90    91    1
   94    88    92    1
   95    92    93    1
   96    92    94    1
   97    94    95    1
   98    66    96    1
   99    92    96    1
  100    96    97    1
  101    96    98    1
  102    98    99    1
  103    85   100    1
  104    98   100    1
  105    98   101    1
  106   101   102    1
  107   101   103    1
  108   101   104    1
  109   104   105    1
  110   106   107    1
  111    12   108    1
  112   106   108    1
  113   106   109    1
  114   109   110    1
  115   109   111    1
  116   111   112    1
  117   109   113    1
  118   113   114    1
  119   113   115    1
  120   115   116    1
  121    87   117    1
  122   113   117    1
  123   117   118    1
  124   117   119    1
  125   119   120    1
  126   106   121    1
  127   119   121    1
  128   119   122    1
  129   122   123    1
  130   122   124    1
  131   122   125    1
  132   125   126    1
  133   127   128    1
  134   127   129    1
  135   127   130    1
  136   127   131    1
  137   131   132    1
  138   131   133    1
  139   131   134    1
  140   134   135    1
  141   134   136    1
  142   134   137    1
  143   137   138    1
  144   137   139    1
  145   137   140    1
  146   140   141    1
  147   140   142    1
  148   140   143    1
  149   143   144    1
  150   143   145    1
  151   143   146    1
  152   146   147    1
  153   146   148    1
  154   148   149    1
  155   148   150    1
  156   148   151    1
  157   146   152    1
  158   152   153    1
  159   152   154    1
  160   152   155    1
@<TRIPOS>SUBSTRUCTURE
       1 MOL1            1 RESIDUE      1      MOL     
       2 MOL1          155 RESIDUE      1      MOL     
@<SCITEGIC>MOL_PROPERTY
VM2 Rank
SciTegic.value.IntegerValue
6

@<SCITEGIC>MOL_PROPERTY
Conf_Id
SciTegic.value.IntegerValue
10554

@<SCITEGIC>MOL_PROPERTY
Probability
SciTegic.value.DoubleValue
1.09

@<SCITEGIC>MOL_PROPERTY
Sum Probability
SciTegic.value.DoubleValue
9.58

@<SCITEGIC>MOL_PROPERTY
Delta G
SciTegic.value.DoubleValue
0.613

@<SCITEGIC>MOL_PROPERTY
G
SciTegic.value.DoubleValue
551.295

@<SCITEGIC>MOL_PROPERTY
E
SciTegic.value.DoubleValue
342.829

@<SCITEGIC>MOL_PROPERTY
-TS
SciTegic.value.DoubleValue
208.466

@<SCITEGIC>MOL_PROPERTY
U+W
SciTegic.value.DoubleValue
206.010

@<SCITEGIC>MOL_PROPERTY
U
SciTegic.value.DoubleValue
273.858

@<SCITEGIC>MOL_PROPERTY
W
SciTegic.value.DoubleValue
-67.848

@<SCITEGIC>MOL_PROPERTY
W(PB)
SciTegic.value.DoubleValue
-74.097

@<SCITEGIC>MOL_PROPERTY
W(SA)
SciTegic.value.DoubleValue
6.249

@<SCITEGIC>MOL_PROPERTY
Valence
SciTegic.value.DoubleValue
147.906

@<SCITEGIC>MOL_PROPERTY
Coulomb
SciTegic.value.DoubleValue
150.980

@<SCITEGIC>MOL_PROPERTY
VdW
SciTegic.value.DoubleValue
-25.028

@<SCITEGIC>MOL_PROPERTY
VdW6
SciTegic.value.DoubleValue
-180.228

@<SCITEGIC>MOL_PROPERTY
VdW12
SciTegic.value.DoubleValue
155.200

@<SCITEGIC>MOL_PROPERTY
Bond
SciTegic.value.DoubleValue
4.372

@<SCITEGIC>MOL_PROPERTY
Angle
SciTegic.value.DoubleValue
10.403

@<SCITEGIC>MOL_PROPERTY
Pdih
SciTegic.value.DoubleValue
133.132

@<SCITEGIC>MOL_PROPERTY
Idih
SciTegic.value.DoubleValue
0.000

@<SCITEGIC>MOL_PROPERTY
Tether
SciTegic.value.DoubleValue
0.000

@<TRIPOS>MOLECULE
CD_guest-s15_vm2_rndm.mol2 : vm2 host+ligand conformer 7
         155         160           2
SMALL
USER_CHARGES
 
@<TRIPOS>ATOM
       1    C1      16.245339   15.091000   21.232777 C.3        1 MOL1         0.2972
       2    H1      15.193782   14.835994   21.050943 H          1 MOL1         0.0751
       3    O1      16.435144   16.509641   21.403561 O.3        1 MOL1        -0.3740
       4    C2      16.753481   14.383693   22.513310 C.3        1 MOL1         0.1003
       5    H2      16.657500   13.302503   22.348953 H          1 MOL1         0.0783
       6    O2      15.967382   14.753547   23.656949 O.3        1 MOL1        -0.5519
       7    H3      15.658761   15.684054   23.516290 H          1 MOL1         0.3769
       8    C3      18.249588   14.693586   22.760669 C.3        1 MOL1         0.1053
       9    H4      18.342103   15.760854   23.003864 H          1 MOL1         0.0783
      10    O3      18.704425   13.901586   23.862862 O.3        1 MOL1        -0.5519
      11    H5      17.972348   13.945594   24.519799 H          1 MOL1         0.3769
      12    C4      19.097659   14.408234   21.490880 C.3        1 MOL1         0.1018
      13    H6      19.185659   13.323514   21.342770 H          1 MOL1         0.0783
      14    C5      18.470065   15.027072   20.214335 C.3        1 MOL1         0.1043
      15    H7      18.569362   16.118219   20.261083 H          1 MOL1         0.0783
      16    O4      17.072143   14.650096   20.134793 O.3        1 MOL1        -0.3740
      17    C6      19.168633   14.526666   18.932101 C.3        1 MOL1         0.0138
      18    H8      19.072665   13.434484   18.869354 H          1 MOL1         0.0794
      19    H9      20.238920   14.763426   18.988399 H          1 MOL1         0.0794
      20    O5      18.592251   15.144842   17.780519 O.3        1 MOL1        -0.5486
      21    H10     17.637766   14.911341   17.804472 H          1 MOL1         0.3769
      22    C7      14.598146   20.209920   20.981551 C.3        1 MOL1         0.2972
      23    H11     13.908597   21.038558   20.775722 H          1 MOL1         0.0751
      24    O6      15.920369   20.675331   21.318452 O.3        1 MOL1        -0.3740
      25    C8      14.092369   19.363273   22.175718 C.3        1 MOL1         0.1003
      26    H12     13.102844   18.970176   21.908658 H          1 MOL1         0.0783
      27    O7      13.979707   20.169881   23.359631 O.3        1 MOL1        -0.5519
      28    H13     14.756812   20.784050   23.373250 H          1 MOL1         0.3769
      29    C9      15.034918   18.160892   22.430155 C.3        1 MOL1         0.1053
      30    H14     15.993873   18.556042   22.789846 H          1 MOL1         0.0783
      31    O8      14.462530   17.307867   23.425171 O.3        1 MOL1        -0.5519
      32    H15     14.142012   17.915965   24.128525 H          1 MOL1         0.3769
      33    C10     15.302832   17.357669   21.131149 C.3        1 MOL1         0.1018
      34    H16     14.404095   16.783060   20.871009 H          1 MOL1         0.0783
      35    C11     15.681627   18.284020   19.945515 C.3        1 MOL1         0.1043
      36    H17     16.670534   18.714077   20.136227 H          1 MOL1         0.0783
      37    O9      14.696601   19.337962   19.836462 O.3        1 MOL1        -0.3740
      38    C12     15.735052   17.549107   18.591852 C.3        1 MOL1         0.0138
      39    H18     14.737445   17.162370   18.344602 H          1 MOL1         0.0794
      40    H19     16.416172   16.693728   18.672604 H          1 MOL1         0.0794
      41    O10     16.198237   18.442986   17.576795 O.3        1 MOL1        -0.5486
      42    H20     15.550890   19.181672   17.555707 H          1 MOL1         0.3769
      43    C13     18.410463   23.973255   21.135640 C.3        1 MOL1         0.2972
      44    H21     18.857262   24.970048   21.027215 H          1 MOL1         0.0751
      45    O11     19.424990   22.946322   21.188178 O.3        1 MOL1        -0.3740
      46    C14     17.507208   23.900909   22.398310 C.3        1 MOL1         0.1003
      47    H22     16.693246   24.622983   22.252631 H          1 MOL1         0.0783
      48    O12     18.217401   24.245806   23.596523 O.3        1 MOL1        -0.5519
      49    H23     18.913661   23.553405   23.726135 H          1 MOL1         0.3769
      50    C15     16.875839   22.495079   22.526531 C.3        1 MOL1         0.1053
      51    H24     17.682864   21.774041   22.710111 H          1 MOL1         0.0783
      52    O13     15.952259   22.475103   23.620261 O.3        1 MOL1        -0.5519
      53    H25     16.412477   22.938627   24.354795 H          1 MOL1         0.3769
      54    C16     16.146712   22.092337   21.221863 C.3        1 MOL1         0.1018
      55    H26     15.206819   22.657000   21.164398 H          1 MOL1         0.0783
      56    C17     17.000844   22.356896   19.949372 C.3        1 MOL1         0.1043
      57    H27     17.808209   21.614609   19.913832 H          1 MOL1         0.0783
      58    O14     17.566606   23.690638   19.999792 O.3        1 MOL1        -0.3740
      59    C18     16.200138   22.245180   18.633274 C.3        1 MOL1         0.0138
      60    H28     15.845251   21.214644   18.514237 H          1 MOL1         0.0794
      61    H29     16.873357   22.456120   17.791654 H          1 MOL1         0.0794
      62    O15     15.094158   23.152452   18.623141 O.3        1 MOL1        -0.5486
      63    H30     15.472975   24.048956   18.760696 H          1 MOL1         0.3769
      64    C19     23.481534   22.420783   22.011794 C.3        1 MOL1         0.2972
      65    H31     24.519475   22.558659   22.339688 H          1 MOL1         0.0751
      66    O16     23.336691   21.246347   21.187705 O.3        1 MOL1        -0.3740
      67    C20     22.533077   22.306271   23.236395 C.3        1 MOL1         0.1003
      68    H32     22.636904   23.236187   23.810597 H          1 MOL1         0.0783
      69    O17     22.868776   21.194645   24.082190 O.3        1 MOL1        -0.5519
      70    H33     23.827303   21.004472   23.946014 H          1 MOL1         0.3769
      71    C21     21.061556   22.183806   22.782238 C.3        1 MOL1         0.1053
      72    H34     20.948180   21.226714   22.258636 H          1 MOL1         0.0783
      73    O18     20.221159   22.212016   23.939212 O.3        1 MOL1        -0.5519
      74    H35     20.656363   21.594506   24.569221 H          1 MOL1         0.3769
      75    C22     20.677427   23.316728   21.800449 C.3        1 MOL1         0.1018
      76    H36     20.596549   24.256139   22.363230 H          1 MOL1         0.0783
      77    C23     21.725500   23.476981   20.664447 C.3        1 MOL1         0.1043
      78    H37     21.659179   22.601414   20.004667 H          1 MOL1         0.0783
      79    O19     23.056512   23.561033   21.233461 O.3        1 MOL1        -0.3740
      80    C24     21.503512   24.736374   19.797187 C.3        1 MOL1         0.0138
      81    H38     20.548066   24.639784   19.264519 H          1 MOL1         0.0794
      82    H39     22.296029   24.787341   19.038615 H          1 MOL1         0.0794
      83    O20     21.503911   25.922806   20.596638 O.3        1 MOL1        -0.5486
      84    H40     22.369553   25.941149   21.062260 H          1 MOL1         0.3769
      85    C25     25.195401   17.633435   20.594000 C.3        1 MOL1         0.2972
      86    H41     25.816894   16.767851   20.330616 H          1 MOL1         0.0751
      87    O21     23.841382   17.238347   20.910580 O.3        1 MOL1        -0.3740
      88    C26     25.813671   18.438702   21.765611 C.3        1 MOL1         0.1003
      89    H42     26.760013   18.857914   21.399318 H          1 MOL1         0.0783
      90    O22     26.093527   17.618423   22.908634 O.3        1 MOL1        -0.5519
      91    H43     25.219192   17.328799   23.271882 H          1 MOL1         0.3769
      92    C27     24.889637   19.620132   22.145960 C.3        1 MOL1         0.1053
      93    H44     23.954560   19.204727   22.545957 H          1 MOL1         0.0783
      94    O23     25.542606   20.404356   23.151129 O.3        1 MOL1        -0.5519
      95    H45     25.992252   19.749258   23.732533 H          1 MOL1         0.3769
      96    C28     24.535150   20.492332   20.905144 C.3        1 MOL1         0.1018
      97    H46     25.376677   21.158329   20.672376 H          1 MOL1         0.0783
      98    C29     24.198061   19.652367   19.641261 C.3        1 MOL1         0.1043
      99    H47     23.180621   19.260482   19.752272 H          1 MOL1         0.0783
     100    O24     25.132830   18.554474   19.485782 O.3        1 MOL1        -0.3740
     101    C30     24.250490   20.504162   18.355404 C.3        1 MOL1         0.0138
     102    H48     25.276162   20.865265   18.201612 H          1 MOL1         0.0794
     103    H49     23.601775   21.382006   18.477615 H          1 MOL1         0.0794
     104    O25     23.818434   19.731405   17.233726 O.3        1 MOL1        -0.5486
     105    H50     24.357123   18.909503   17.246396 H          1 MOL1         0.3769
     106    C31     21.402123   14.196498   22.275570 C.3        1 MOL1         0.2972
     107    H51     20.973995   13.273163   22.686580 H          1 MOL1         0.0751
     108    O26     20.391791   15.020382   21.658205 O.3        1 MOL1        -0.3740
     109    C32     22.100277   15.004225   23.397869 C.3        1 MOL1         0.1003
     110    H52     22.894990   14.366330   23.806189 H          1 MOL1         0.0783
     111    O27     21.186783   15.347597   24.452368 O.3        1 MOL1        -0.5519
     112    H53     20.367239   14.813029   24.314706 H          1 MOL1         0.3769
     113    C33     22.755726   16.284449   22.833351 C.3        1 MOL1         0.1053
     114    H54     21.956259   16.958785   22.507662 H          1 MOL1         0.0783
     115    O28     23.507282   16.904952   23.878938 O.3        1 MOL1        -0.5519
     116    H55     22.900767   16.899232   24.653926 H          1 MOL1         0.3769
     117    C34     23.654741   15.988063   21.604279 C.3        1 MOL1         0.1018
     118    H56     24.605190   15.559876   21.949085 H          1 MOL1         0.0783
     119    C35     22.975718   15.023879   20.590946 C.3        1 MOL1         0.1043
     120    H57     22.182711   15.577310   20.071164 H          1 MOL1         0.0783
     121    O29     22.399481   13.885779   21.279565 O.3        1 MOL1        -0.3740
     122    C36     23.947650   14.486442   19.517342 C.3        1 MOL1         0.0138
     123    H58     24.314703   15.327623   18.914304 H          1 MOL1         0.0794
     124    H59     23.395635   13.817407   18.843675 H          1 MOL1         0.0794
     125    O30     25.046470   13.792962   20.115530 O.3        1 MOL1        -0.5486
     126    H60     24.654805   13.077047   20.663874 H          1 MOL1         0.3769
     127    C1      18.699213   18.999683   24.406811 C.3        1 MOL1        -0.2426
     128    H1      19.125973   18.813411   25.400612 H          1 MOL1         0.0959
     129    H2      18.417483   20.059060   24.352633 H          1 MOL1         0.0959
     130    H3      17.786883   18.396918   24.315862 H          1 MOL1         0.0959
     131    C2      19.715090   18.634284   23.305059 C.3        1 MOL1        -0.1410
     132    H4      19.956701   17.566912   23.385556 H          1 MOL1         0.0948
     133    H5      20.651992   19.184693   23.468749 H          1 MOL1         0.0948
     134    C3      19.161394   18.935874   21.896470 C.3        1 MOL1        -0.1435
     135    H6      18.241255   18.360243   21.749670 H          1 MOL1         0.0948
     136    H7      18.887260   19.996581   21.824894 H          1 MOL1         0.0948
     137    C4      20.171194   18.587800   20.780845 C.3        1 MOL1        -0.1435
     138    H8      20.464617   17.534749   20.867229 H          1 MOL1         0.0948
     139    H9      21.085232   19.182866   20.912573 H          1 MOL1         0.0948
     140    C5      19.580293   18.837843   19.375720 C.3        1 MOL1        -0.1435
     141    H10     18.656247   18.259800   19.262352 H          1 MOL1         0.0948
     142    H11     19.313725   19.897988   19.282438 H          1 MOL1         0.0948
     143    C6      20.570776   18.435997   18.256796 C.3        1 MOL1        -0.1500
     144    H12     20.866366   17.387450   18.392834 H          1 MOL1         0.0948
     145    H13     21.486457   19.027331   18.358477 H          1 MOL1         0.0948
     146    C7      20.037546   18.612928   16.817316 C.3        1 MOL1         0.1162
     147    H14     20.822109   18.260279   16.140858 H          1 MOL1         0.0910
     148    C8      19.759405   20.088308   16.482643 C.3        1 MOL1        -0.2491
     149    H15     19.513218   20.199710   15.419781 H          1 MOL1         0.0959
     150    H16     20.643447   20.705502   16.687282 H          1 MOL1         0.0959
     151    H17     18.918312   20.483150   17.064761 H          1 MOL1         0.0959
     152    N1      18.832207   17.759885   16.536456 N.4        1 MOL1        -0.5987
     153    H18     17.992591   18.105619   17.027253 H          1 MOL1         0.3605
     154    H19     18.605339   17.738058   15.539699 H          1 MOL1         0.3605
     155    H20     18.971510   16.786020   16.848638 H          1 MOL1         0.3605
@<TRIPOS>BOND
    1     1     2    1
    2     1     3    1
    3     1     4    1
    4     4     5    1
    5     4     6    1
    6     6     7    1
    7     4     8    1
    8     8     9    1
    9     8    10    1
   10    10    11    1
   11     8    12    1
   12    12    13    1
   13    12    14    1
   14    14    15    1
   15     1    16    1
   16    14    16    1
   17    14    17    1
   18    17    18    1
   19    17    19    1
   20    17    20    1
   21    20    21    1
   22    22    23    1
   23    22    24    1
   24    22    25    1
   25    25    26    1
   26    25    27    1
   27    27    28    1
   28    25    29    1
   29    29    30    1
   30    29    31    1
   31    31    32    1
   32     3    33    1
   33    29    33    1
   34    33    34    1
   35    33    35    1
   36    35    36    1
   37    22    37    1
   38    35    37    1
   39    35    38    1
   40    38    39    1
   41    38    40    1
   42    38    41    1
   43    41    42    1
   44    43    44    1
   45    43    45    1
   46    43    46    1
   47    46    47    1
   48    46    48    1
   49    48    49    1
   50    46    50    1
   51    50    51    1
   52    50    52    1
   53    52    53    1
   54    24    54    1
   55    50    54    1
   56    54    55    1
   57    54    56    1
   58    56    57    1
   59    43    58    1
   60    56    58    1
   61    56    59    1
   62    59    60    1
   63    59    61    1
   64    59    62    1
   65    62    63    1
   66    64    65    1
   67    64    66    1
   68    64    67    1
   69    67    68    1
   70    67    69    1
   71    69    70    1
   72    67    71    1
   73    71    72    1
   74    71    73    1
   75    73    74    1
   76    45    75    1
   77    71    75    1
   78    75    76    1
   79    75    77    1
   80    77    78    1
   81    64    79    1
   82    77    79    1
   83    77    80    1
   84    80    81    1
   85    80    82    1
   86    80    83    1
   87    83    84    1
   88    85    86    1
   89    85    87    1
   90    85    88    1
   91    88    89    1
   92    88    90    1
   93    90    91    1
   94    88    92    1
   95    92    93    1
   96    92    94    1
   97    94    95    1
   98    66    96    1
   99    92    96    1
  100    96    97    1
  101    96    98    1
  102    98    99    1
  103    85   100    1
  104    98   100    1
  105    98   101    1
  106   101   102    1
  107   101   103    1
  108   101   104    1
  109   104   105    1
  110   106   107    1
  111    12   108    1
  112   106   108    1
  113   106   109    1
  114   109   110    1
  115   109   111    1
  116   111   112    1
  117   109   113    1
  118   113   114    1
  119   113   115    1
  120   115   116    1
  121    87   117    1
  122   113   117    1
  123   117   118    1
  124   117   119    1
  125   119   120    1
  126   106   121    1
  127   119   121    1
  128   119   122    1
  129   122   123    1
  130   122   124    1
  131   122   125    1
  132   125   126    1
  133   127   128    1
  134   127   129    1
  135   127   130    1
  136   127   131    1
  137   131   132    1
  138   131   133    1
  139   131   134    1
  140   134   135    1
  141   134   136    1
  142   134   137    1
  143   137   138    1
  144   137   139    1
  145   137   140    1
  146   140   141    1
  147   140   142    1
  148   140   143    1
  149   143   144    1
  150   143   145    1
  151   143   146    1
  152   146   147    1
  153   146   148    1
  154   148   149    1
  155   148   150    1
  156   148   151    1
  157   146   152    1
  158   152   153    1
  159   152   154    1
  160   152   155    1
@<TRIPOS>SUBSTRUCTURE
       1 MOL1            1 RESIDUE      1      MOL     
       2 MOL1          155 RESIDUE      1      MOL     
@<SCITEGIC>MOL_PROPERTY
VM2 Rank
SciTegic.value.IntegerValue
7

@<SCITEGIC>MOL_PROPERTY
Conf_Id
SciTegic.value.IntegerValue
20420

@<SCITEGIC>MOL_PROPERTY
Probability
SciTegic.value.DoubleValue
1.04

@<SCITEGIC>MOL_PROPERTY
Sum Probability
SciTegic.value.DoubleValue
10.62

@<SCITEGIC>MOL_PROPERTY
Delta G
SciTegic.value.DoubleValue
0.639

@<SCITEGIC>MOL_PROPERTY
G
SciTegic.value.DoubleValue
551.321

@<SCITEGIC>MOL_PROPERTY
E
SciTegic.value.DoubleValue
340.042

@<SCITEGIC>MOL_PROPERTY
-TS
SciTegic.value.DoubleValue
211.279

@<SCITEGIC>MOL_PROPERTY
U+W
SciTegic.value.DoubleValue
203.223

@<SCITEGIC>MOL_PROPERTY
U
SciTegic.value.DoubleValue
266.772

@<SCITEGIC>MOL_PROPERTY
W
SciTegic.value.DoubleValue
-63.549

@<SCITEGIC>MOL_PROPERTY
W(PB)
SciTegic.value.DoubleValue
-69.613

@<SCITEGIC>MOL_PROPERTY
W(SA)
SciTegic.value.DoubleValue
6.064

@<SCITEGIC>MOL_PROPERTY
Valence
SciTegic.value.DoubleValue
148.306

@<SCITEGIC>MOL_PROPERTY
Coulomb
SciTegic.value.DoubleValue
145.403

@<SCITEGIC>MOL_PROPERTY
VdW
SciTegic.value.DoubleValue
-26.937

@<SCITEGIC>MOL_PROPERTY
VdW6
SciTegic.value.DoubleValue
-187.930

@<SCITEGIC>MOL_PROPERTY
VdW12
SciTegic.value.DoubleValue
160.994

@<SCITEGIC>MOL_PROPERTY
Bond
SciTegic.value.DoubleValue
4.413

@<SCITEGIC>MOL_PROPERTY
Angle
SciTegic.value.DoubleValue
10.781

@<SCITEGIC>MOL_PROPERTY
Pdih
SciTegic.value.DoubleValue
133.112

@<SCITEGIC>MOL_PROPERTY
Idih
SciTegic.value.DoubleValue
0.000

@<SCITEGIC>MOL_PROPERTY
Tether
SciTegic.value.DoubleValue
0.000

@<TRIPOS>MOLECULE
CD_guest-s15_vm2_rndm.mol2 : vm2 host+ligand conformer 8
         155         160           2
SMALL
USER_CHARGES
 
@<TRIPOS>ATOM
       1    C1      16.222649   15.012403   20.627282 C.3        1 MOL1         0.2972
       2    H1      15.175249   14.877828   20.327666 H          1 MOL1         0.0751
       3    O1      16.526361   16.397501   20.894110 O.3        1 MOL1        -0.3740
       4    C2      16.572277   14.149038   21.867851 C.3        1 MOL1         0.1003
       5    H2      16.465781   13.098171   21.568539 H          1 MOL1         0.0783
       6    O2      15.691819   14.404225   22.971740 O.3        1 MOL1        -0.5519
       7    H3      15.833622   15.346278   23.242668 H          1 MOL1         0.3769
       8    C3      18.045877   14.379069   22.280037 C.3        1 MOL1         0.1053
       9    H4      18.141389   15.414253   22.637095 H          1 MOL1         0.0783
      10    O3      18.391913   13.471747   23.331191 O.3        1 MOL1        -0.5519
      11    H5      17.614224   13.469088   23.934050 H          1 MOL1         0.3769
      12    C4      19.010282   14.191878   21.078234 C.3        1 MOL1         0.1018
      13    H6      19.154603   13.119808   20.888229 H          1 MOL1         0.0783
      14    C5      18.508254   14.860469   19.768128 C.3        1 MOL1         0.1043
      15    H7      18.666958   15.944120   19.837819 H          1 MOL1         0.0783
      16    O4      17.100796   14.573873   19.570211 O.3        1 MOL1        -0.3740
      17    C6      19.269105   14.335381   18.532367 C.3        1 MOL1         0.0138
      18    H8      19.041367   13.270182   18.392646 H          1 MOL1         0.0794
      19    H9      20.348435   14.423588   18.711583 H          1 MOL1         0.0794
      20    O5      18.901896   15.082848   17.369887 O.3        1 MOL1        -0.5486
      21    H10     17.919700   15.061112   17.334781 H          1 MOL1         0.3769
      22    C7      14.958007   20.115435   21.717378 C.3        1 MOL1         0.2972
      23    H11     14.336708   20.983178   21.972132 H          1 MOL1         0.0751
      24    O6      16.227754   20.513503   21.161207 O.3        1 MOL1        -0.3740
      25    C8      15.212365   19.242875   22.973830 C.3        1 MOL1         0.1003
      26    H12     14.231937   18.910226   23.338900 H          1 MOL1         0.0783
      27    O7      15.874547   19.985228   24.010735 O.3        1 MOL1        -0.5519
      28    H13     15.732510   20.942887   23.816753 H          1 MOL1         0.3769
      29    C9      16.045197   17.990000   22.617564 C.3        1 MOL1         0.1053
      30    H14     17.054485   18.321235   22.349995 H          1 MOL1         0.0783
      31    O8      16.114108   17.139717   23.765402 O.3        1 MOL1        -0.5519
      32    H15     16.330858   17.748495   24.507450 H          1 MOL1         0.3769
      33    C10     15.461480   17.222170   21.403994 C.3        1 MOL1         0.1018
      34    H16     14.600944   16.627691   21.738478 H          1 MOL1         0.0783
      35    C11     15.040840   18.164254   20.240462 C.3        1 MOL1         0.1043
      36    H17     15.952372   18.530220   19.749485 H          1 MOL1         0.0783
      37    O9      14.280584   19.288774   20.747665 O.3        1 MOL1        -0.3740
      38    C12     14.184772   17.460637   19.164015 C.3        1 MOL1         0.0138
      39    H18     14.785930   16.676046   18.685600 H          1 MOL1         0.0794
      40    H19     13.923848   18.191338   18.386759 H          1 MOL1         0.0794
      41    O10     12.999803   16.895862   19.732594 O.3        1 MOL1        -0.5486
      42    H20     12.521481   17.637573   20.165856 H          1 MOL1         0.3769
      43    C13     18.519046   23.984365   20.863537 C.3        1 MOL1         0.2972
      44    H21     18.901259   24.986703   20.630243 H          1 MOL1         0.0751
      45    O11     19.555216   23.119786   21.366103 O.3        1 MOL1        -0.3740
      46    C14     17.396360   24.050899   21.928715 C.3        1 MOL1         0.1003
      47    H22     16.589110   24.667382   21.512221 H          1 MOL1         0.0783
      48    O12     17.865998   24.654285   23.145054 O.3        1 MOL1        -0.5519
      49    H23     18.705616   24.194579   23.401448 H          1 MOL1         0.3769
      50    C15     16.820807   22.640704   22.213041 C.3        1 MOL1         0.1053
      51    H24     17.604428   22.044303   22.701109 H          1 MOL1         0.0783
      52    O13     15.699271   22.779566   23.092288 O.3        1 MOL1        -0.5519
      53    H25     15.970358   23.471385   23.738460 H          1 MOL1         0.3769
      54    C16     16.414579   21.918571   20.895107 C.3        1 MOL1         0.1018
      55    H26     15.499481   22.369999   20.489244 H          1 MOL1         0.0783
      56    C17     17.532540   22.002919   19.821560 C.3        1 MOL1         0.1043
      57    H27     18.374327   21.373965   20.134311 H          1 MOL1         0.0783
      58    O14     17.962012   23.378126   19.678266 O.3        1 MOL1        -0.3740
      59    C18     17.059326   21.509946   18.438570 C.3        1 MOL1         0.0138
      60    H28     16.294323   22.195089   18.049544 H          1 MOL1         0.0794
      61    H29     16.598159   20.519338   18.544364 H          1 MOL1         0.0794
      62    O15     18.170758   21.432035   17.543647 O.3        1 MOL1        -0.5486
      63    H30     18.588864   22.320323   17.548772 H          1 MOL1         0.3769
      64    C19     23.586870   22.893091   22.105336 C.3        1 MOL1         0.2972
      65    H31     24.655300   23.042202   22.307848 H          1 MOL1         0.0751
      66    O16     23.284483   21.516145   21.801815 O.3        1 MOL1        -0.3740
      67    C20     22.749142   23.318374   23.335745 C.3        1 MOL1         0.1003
      68    H32     22.919060   24.390810   23.497443 H          1 MOL1         0.0783
      69    O17     23.154112   22.592854   24.507657 O.3        1 MOL1        -0.5519
      70    H33     23.672637   21.808474   24.200077 H          1 MOL1         0.3769
      71    C21     21.242205   23.107136   23.064502 C.3        1 MOL1         0.1053
      72    H34     21.067877   22.026986   23.011475 H          1 MOL1         0.0783
      73    O18     20.478934   23.658046   24.141937 O.3        1 MOL1        -0.5519
      74    H35     20.926410   23.337433   24.956843 H          1 MOL1         0.3769
      75    C22     20.799291   23.749599   21.723899 C.3        1 MOL1         0.1018
      76    H36     20.681645   24.829926   21.882454 H          1 MOL1         0.0783
      77    C23     21.791708   23.486558   20.554323 C.3        1 MOL1         0.1043
      78    H37     21.667255   22.444626   20.230562 H          1 MOL1         0.0783
      79    O19     23.158479   23.700197   20.989433 O.3        1 MOL1        -0.3740
      80    C24     21.545794   24.385372   19.322052 C.3        1 MOL1         0.0138
      81    H38     20.561009   24.151275   18.897078 H          1 MOL1         0.0794
      82    H39     22.295437   24.146833   18.555660 H          1 MOL1         0.0794
      83    O20     21.615916   25.770826   19.670895 O.3        1 MOL1        -0.5486
      84    H40     22.506387   25.911823   20.062885 H          1 MOL1         0.3769
      85    C25     25.002841   17.820906   21.092163 C.3        1 MOL1         0.2972
      86    H41     25.652395   16.980459   20.817286 H          1 MOL1         0.0751
      87    O21     23.646306   17.389084   21.326067 O.3        1 MOL1        -0.3740
      88    C26     25.541715   18.555756   22.347758 C.3        1 MOL1         0.1003
      89    H42     26.528198   18.960396   22.086430 H          1 MOL1         0.0783
      90    O22     25.689735   17.667707   23.464774 O.3        1 MOL1        -0.5519
      91    H43     24.792659   17.297960   23.664474 H          1 MOL1         0.3769
      92    C27     24.621336   19.746246   22.708378 C.3        1 MOL1         0.1053
      93    H44     23.644020   19.343730   23.009884 H          1 MOL1         0.0783
      94    O23     25.193156   20.487924   23.790261 O.3        1 MOL1        -0.5519
      95    H45     25.518434   19.808934   24.423300 H          1 MOL1         0.3769
      96    C28     24.407764   20.674741   21.485375 C.3        1 MOL1         0.1018
      97    H46     25.321056   21.257012   21.303536 H          1 MOL1         0.0783
      98    C29     24.049920   19.893631   20.192779 C.3        1 MOL1         0.1043
      99    H47     23.020418   19.527852   20.276793 H          1 MOL1         0.0783
     100    O24     24.971453   18.786748   20.020918 O.3        1 MOL1        -0.3740
     101    C30     24.147711   20.775351   18.930560 C.3        1 MOL1         0.0138
     102    H48     25.187408   21.102295   18.796149 H          1 MOL1         0.0794
     103    H49     23.531352   21.672925   19.063688 H          1 MOL1         0.0794
     104    O25     23.700963   20.043656   17.787612 O.3        1 MOL1        -0.5486
     105    H50     24.223904   19.212865   17.778581 H          1 MOL1         0.3769
     106    C31     21.301981   13.994522   21.915176 C.3        1 MOL1         0.2972
     107    H51     20.943365   12.976863   22.116740 H          1 MOL1         0.0751
     108    O26     20.244855   14.845095   21.428816 O.3        1 MOL1        -0.3740
     109    C32     21.896607   14.616539   23.205665 C.3        1 MOL1         0.1003
     110    H52     22.721721   13.967276   23.526289 H          1 MOL1         0.0783
     111    O27     20.920190   14.686114   24.257323 O.3        1 MOL1        -0.5519
     112    H53     20.073746   14.322331   23.898087 H          1 MOL1         0.3769
     113    C33     22.476681   16.023461   22.930511 C.3        1 MOL1         0.1053
     114    H54     21.636095   16.689695   22.701662 H          1 MOL1         0.0783
     115    O28     23.147880   16.485004   24.105452 O.3        1 MOL1        -0.5519
     116    H55     22.526188   16.281326   24.840452 H          1 MOL1         0.3769
     117    C34     23.443084   16.016289   21.716162 C.3        1 MOL1         0.1018
     118    H56     24.382514   15.525826   22.004573 H          1 MOL1         0.0783
     119    C35     22.815708   15.285861   20.498720 C.3        1 MOL1         0.1043
     120    H57     21.979714   15.891794   20.132603 H          1 MOL1         0.0783
     121    O29     22.342730   13.979532   20.914397 O.3        1 MOL1        -0.3740
     122    C36     23.796703   15.088833   19.325695 C.3        1 MOL1         0.0138
     123    H58     24.618170   14.431066   19.639676 H          1 MOL1         0.0794
     124    H59     24.228229   16.058677   19.045907 H          1 MOL1         0.0794
     125    O30     23.101149   14.534713   18.207068 O.3        1 MOL1        -0.5486
     126    H60     22.756019   13.664937   18.508539 H          1 MOL1         0.3769
     127    C1      19.877175   19.196522   23.436660 C.3        1 MOL1        -0.2426
     128    H1      20.944737   19.107345   23.677477 H          1 MOL1         0.0959
     129    H2      19.442527   19.956859   24.098700 H          1 MOL1         0.0959
     130    H3      19.393235   18.236928   23.662005 H          1 MOL1         0.0959
     131    C2      19.673227   19.585611   21.958470 C.3        1 MOL1        -0.1410
     132    H4      20.153892   20.549353   21.759620 H          1 MOL1         0.0948
     133    H5      18.605905   19.722590   21.759100 H          1 MOL1         0.0948
     134    C3      20.253167   18.530165   21.000946 C.3        1 MOL1        -0.1435
     135    H6      21.316922   18.404592   21.224866 H          1 MOL1         0.0948
     136    H7      19.770413   17.560260   21.179488 H          1 MOL1         0.0948
     137    C4      20.085190   18.937419   19.521790 C.3        1 MOL1        -0.1435
     138    H8      20.449662   19.963769   19.374439 H          1 MOL1         0.0948
     139    H9      19.017789   18.938578   19.259738 H          1 MOL1         0.0948
     140    C5      20.857878   17.988870   18.580600 C.3        1 MOL1        -0.1435
     141    H10     21.930892   18.036235   18.809364 H          1 MOL1         0.0948
     142    H11     20.534876   16.957895   18.762211 H          1 MOL1         0.0948
     143    C6      20.627608   18.346273   17.095717 C.3        1 MOL1        -0.1500
     144    H12     20.812904   19.419422   16.950987 H          1 MOL1         0.0948
     145    H13     19.572972   18.173116   16.842474 H          1 MOL1         0.0948
     146    C7      21.534498   17.555990   16.127270 C.3        1 MOL1         0.1162
     147    H14     22.574539   17.836281   16.320306 H          1 MOL1         0.0910
     148    C8      21.199916   17.931088   14.675305 C.3        1 MOL1        -0.2491
     149    H15     20.168950   17.652990   14.422810 H          1 MOL1         0.0959
     150    H16     21.873859   17.419918   13.977164 H          1 MOL1         0.0959
     151    H17     21.312225   19.011066   14.517851 H          1 MOL1         0.0959
     152    N1      21.448857   16.066192   16.320514 N.4        1 MOL1        -0.5987
     153    H18     21.983249   15.752945   17.145477 H          1 MOL1         0.3605
     154    H19     20.473584   15.757278   16.462551 H          1 MOL1         0.3605
     155    H20     21.828323   15.558358   15.518350 H          1 MOL1         0.3605
@<TRIPOS>BOND
    1     1     2    1
    2     1     3    1
    3     1     4    1
    4     4     5    1
    5     4     6    1
    6     6     7    1
    7     4     8    1
    8     8     9    1
    9     8    10    1
   10    10    11    1
   11     8    12    1
   12    12    13    1
   13    12    14    1
   14    14    15    1
   15     1    16    1
   16    14    16    1
   17    14    17    1
   18    17    18    1
   19    17    19    1
   20    17    20    1
   21    20    21    1
   22    22    23    1
   23    22    24    1
   24    22    25    1
   25    25    26    1
   26    25    27    1
   27    27    28    1
   28    25    29    1
   29    29    30    1
   30    29    31    1
   31    31    32    1
   32     3    33    1
   33    29    33    1
   34    33    34    1
   35    33    35    1
   36    35    36    1
   37    22    37    1
   38    35    37    1
   39    35    38    1
   40    38    39    1
   41    38    40    1
   42    38    41    1
   43    41    42    1
   44    43    44    1
   45    43    45    1
   46    43    46    1
   47    46    47    1
   48    46    48    1
   49    48    49    1
   50    46    50    1
   51    50    51    1
   52    50    52    1
   53    52    53    1
   54    24    54    1
   55    50    54    1
   56    54    55    1
   57    54    56    1
   58    56    57    1
   59    43    58    1
   60    56    58    1
   61    56    59    1
   62    59    60    1
   63    59    61    1
   64    59    62    1
   65    62    63    1
   66    64    65    1
   67    64    66    1
   68    64    67    1
   69    67    68    1
   70    67    69    1
   71    69    70    1
   72    67    71    1
   73    71    72    1
   74    71    73    1
   75    73    74    1
   76    45    75    1
   77    71    75    1
   78    75    76    1
   79    75    77    1
   80    77    78    1
   81    64    79    1
   82    77    79    1
   83    77    80    1
   84    80    81    1
   85    80    82    1
   86    80    83    1
   87    83    84    1
   88    85    86    1
   89    85    87    1
   90    85    88    1
   91    88    89    1
   92    88    90    1
   93    90    91    1
   94    88    92    1
   95    92    93    1
   96    92    94    1
   97    94    95    1
   98    66    96    1
   99    92    96    1
  100    96    97    1
  101    96    98    1
  102    98    99    1
  103    85   100    1
  104    98   100    1
  105    98   101    1
  106   101   102    1
  107   101   103    1
  108   101   104    1
  109   104   105    1
  110   106   107    1
  111    12   108    1
  112   106   108    1
  113   106   109    1
  114   109   110    1
  115   109   111    1
  116   111   112    1
  117   109   113    1
  118   113   114    1
  119   113   115    1
  120   115   116    1
  121    87   117    1
  122   113   117    1
  123   117   118    1
  124   117   119    1
  125   119   120    1
  126   106   121    1
  127   119   121    1
  128   119   122    1
  129   122   123    1
  130   122   124    1
  131   122   125    1
  132   125   126    1
  133   127   128    1
  134   127   129    1
  135   127   130    1
  136   127   131    1
  137   131   132    1
  138   131   133    1
  139   131   134    1
  140   134   135    1
  141   134   136    1
  142   134   137    1
  143   137   138    1
  144   137   139    1
  145   137   140    1
  146   140   141    1
  147   140   142    1
  148   140   143    1
  149   143   144    1
  150   143   145    1
  151   143   146    1
  152   146   147    1
  153   146   148    1
  154   148   149    1
  155   148   150    1
  156   148   151    1
  157   146   152    1
  158   152   153    1
  159   152   154    1
  160   152   155    1
@<TRIPOS>SUBSTRUCTURE
       1 MOL1            1 RESIDUE      1      MOL     
       2 MOL1          155 RESIDUE      1      MOL     
@<SCITEGIC>MOL_PROPERTY
VM2 Rank
SciTegic.value.IntegerValue
8

@<SCITEGIC>MOL_PROPERTY
Conf_Id
SciTegic.value.IntegerValue
25713

@<SCITEGIC>MOL_PROPERTY
Probability
SciTegic.value.DoubleValue
1.04

@<SCITEGIC>MOL_PROPERTY
Sum Probability
SciTegic.value.DoubleValue
11.66

@<SCITEGIC>MOL_PROPERTY
Delta G
SciTegic.value.DoubleValue
0.641

@<SCITEGIC>MOL_PROPERTY
G
SciTegic.value.DoubleValue
551.323

@<SCITEGIC>MOL_PROPERTY
E
SciTegic.value.DoubleValue
342.580

@<SCITEGIC>MOL_PROPERTY
-TS
SciTegic.value.DoubleValue
208.743

@<SCITEGIC>MOL_PROPERTY
U+W
SciTegic.value.DoubleValue
205.761

@<SCITEGIC>MOL_PROPERTY
U
SciTegic.value.DoubleValue
267.236

@<SCITEGIC>MOL_PROPERTY
W
SciTegic.value.DoubleValue
-61.475

@<SCITEGIC>MOL_PROPERTY
W(PB)
SciTegic.value.DoubleValue
-67.627

@<SCITEGIC>MOL_PROPERTY
W(SA)
SciTegic.value.DoubleValue
6.152

@<SCITEGIC>MOL_PROPERTY
Valence
SciTegic.value.DoubleValue
149.333

@<SCITEGIC>MOL_PROPERTY
Coulomb
SciTegic.value.DoubleValue
144.278

@<SCITEGIC>MOL_PROPERTY
VdW
SciTegic.value.DoubleValue
-26.375

@<SCITEGIC>MOL_PROPERTY
VdW6
SciTegic.value.DoubleValue
-183.375

@<SCITEGIC>MOL_PROPERTY
VdW12
SciTegic.value.DoubleValue
157.000

@<SCITEGIC>MOL_PROPERTY
Bond
SciTegic.value.DoubleValue
4.308

@<SCITEGIC>MOL_PROPERTY
Angle
SciTegic.value.DoubleValue
10.202

@<SCITEGIC>MOL_PROPERTY
Pdih
SciTegic.value.DoubleValue
134.823

@<SCITEGIC>MOL_PROPERTY
Idih
SciTegic.value.DoubleValue
0.000

@<SCITEGIC>MOL_PROPERTY
Tether
SciTegic.value.DoubleValue
0.000

