@<TRIPOS>MOLECULE
CD_guest-s16_vm2_rndm.mol2 : vm2 host+ligand conformer 1
         139         145           2
SMALL
USER_CHARGES
 
@<TRIPOS>ATOM
       1    C1      16.254123   15.058796   20.609740 C.3        1 MOL1         0.2972
       2    H1      15.189927   14.948225   20.364527 H          1 MOL1         0.0751
       3    O1      16.605132   16.442225   20.832882 O.3        1 MOL1        -0.3740
       4    C2      16.639428   14.199846   21.842384 C.3        1 MOL1         0.1003
       5    H2      16.465963   13.151965   21.564449 H          1 MOL1         0.0783
       6    O2      15.838686   14.507533   22.992880 O.3        1 MOL1        -0.5519
       7    H3      16.063767   15.435541   23.256362 H          1 MOL1         0.3769
       8    C3      18.142588   14.357260   22.176515 C.3        1 MOL1         0.1053
       9    H4      18.300195   15.380472   22.545783 H          1 MOL1         0.0783
      10    O3      18.476023   13.409957   23.197781 O.3        1 MOL1        -0.5519
      11    H5      17.704095   13.412987   23.809060 H          1 MOL1         0.3769
      12    C4      19.049256   14.153653   20.927644 C.3        1 MOL1         0.1018
      13    H6      19.167824   13.080299   20.728314 H          1 MOL1         0.0783
      14    C5      18.485150   14.835170   19.650398 C.3        1 MOL1         0.1043
      15    H7      18.657493   15.913031   19.722771 H          1 MOL1         0.0783
      16    O4      17.065838   14.574340   19.521053 O.3        1 MOL1        -0.3740
      17    C6      19.177063   14.344579   18.364829 C.3        1 MOL1         0.0138
      18    H8      18.960284   13.278377   18.215352 H          1 MOL1         0.0794
      19    H9      20.264406   14.455408   18.475207 H          1 MOL1         0.0794
      20    O5      18.716945   15.116670   17.253953 O.3        1 MOL1        -0.5486
      21    H10     17.740094   15.003111   17.229381 H          1 MOL1         0.3769
      22    C7      15.051065   20.155118   21.831364 C.3        1 MOL1         0.2972
      23    H11     14.424354   20.991110   22.167022 H          1 MOL1         0.0751
      24    O6      16.227917   20.617645   21.138831 O.3        1 MOL1        -0.3740
      25    C8      15.486107   19.285568   23.040057 C.3        1 MOL1         0.1003
      26    H12     14.568778   18.906630   23.509250 H          1 MOL1         0.0783
      27    O7      16.226616   20.047565   24.007324 O.3        1 MOL1        -0.5519
      28    H13     16.030028   21.000709   23.839665 H          1 MOL1         0.3769
      29    C9      16.323910   18.072206   22.573855 C.3        1 MOL1         0.1053
      30    H14     17.278594   18.448559   22.180747 H          1 MOL1         0.0783
      31    O8      16.563200   17.219294   23.697635 O.3        1 MOL1        -0.5519
      32    H15     16.871420   17.827822   24.406694 H          1 MOL1         0.3769
      33    C10     15.610069   17.284844   21.445513 C.3        1 MOL1         0.1018
      34    H16     14.790785   16.700883   21.885069 H          1 MOL1         0.0783
      35    C11     15.052289   18.217575   20.334236 C.3        1 MOL1         0.1043
      36    H17     15.899207   18.619568   19.762552 H          1 MOL1         0.0783
      37    O9      14.306398   19.307497   20.930681 O.3        1 MOL1        -0.3740
      38    C12     14.118071   17.495544   19.337753 C.3        1 MOL1         0.0138
      39    H18     14.696695   16.742040   18.787113 H          1 MOL1         0.0794
      40    H19     13.752316   18.226208   18.603852 H          1 MOL1         0.0794
      41    O10     13.019026   16.876403   20.012535 O.3        1 MOL1        -0.5486
      42    H20     12.556612   17.593264   20.501302 H          1 MOL1         0.3769
      43    C13     18.463197   24.053597   20.688270 C.3        1 MOL1         0.2972
      44    H21     18.883005   25.041904   20.460263 H          1 MOL1         0.0751
      45    O11     19.499336   23.098214   21.002134 O.3        1 MOL1        -0.3740
      46    C14     17.442275   24.130549   21.853661 C.3        1 MOL1         0.1003
      47    H22     16.607923   24.754381   21.507158 H          1 MOL1         0.0783
      48    O12     18.004618   24.731048   23.029298 O.3        1 MOL1        -0.5519
      49    H23     18.732098   24.133936   23.337870 H          1 MOL1         0.3769
      50    C15     16.880213   22.723989   22.172415 C.3        1 MOL1         0.1053
      51    H24     17.705286   22.106707   22.555132 H          1 MOL1         0.0783
      52    O13     15.864565   22.850604   23.174396 O.3        1 MOL1        -0.5519
      53    H25     16.203490   23.537171   23.793404 H          1 MOL1         0.3769
      54    C16     16.314062   22.037006   20.896092 C.3        1 MOL1         0.1018
      55    H26     15.330177   22.460336   20.653993 H          1 MOL1         0.0783
      56    C17     17.247118   22.192955   19.663375 C.3        1 MOL1         0.1043
      57    H27     18.093807   21.511050   19.794983 H          1 MOL1         0.0783
      58    O14     17.736280   23.553035   19.547551 O.3        1 MOL1        -0.3740
      59    C18     16.554178   21.823582   18.333408 C.3        1 MOL1         0.0138
      60    H28     16.198461   20.786154   18.390385 H          1 MOL1         0.0794
      61    H29     17.294513   21.874239   17.523818 H          1 MOL1         0.0794
      62    O15     15.461247   22.705814   18.062046 O.3        1 MOL1        -0.5486
      63    H30     15.830022   23.616442   18.102267 H          1 MOL1         0.3769
      64    C19     23.450477   22.690188   22.163447 C.3        1 MOL1         0.2972
      65    H31     24.480062   22.821071   22.520781 H          1 MOL1         0.0751
      66    O16     23.263279   21.404774   21.539101 O.3        1 MOL1        -0.3740
      67    C20     22.448472   22.839043   23.338010 C.3        1 MOL1         0.1003
      68    H32     22.569480   23.854993   23.736046 H          1 MOL1         0.0783
      69    O17     22.708534   21.893298   24.387486 O.3        1 MOL1        -0.5519
      70    H33     23.532684   21.404625   24.144756 H          1 MOL1         0.3769
      71    C21     20.990096   22.690797   22.846764 C.3        1 MOL1         0.1053
      72    H34     20.843090   21.649440   22.537568 H          1 MOL1         0.0783
      73    O18     20.107852   22.995339   23.930559 O.3        1 MOL1        -0.5519
      74    H35     20.472188   22.490988   24.693001 H          1 MOL1         0.3769
      75    C22     20.692769   23.607632   21.631418 C.3        1 MOL1         0.1018
      76    H36     20.559740   24.636565   21.991142 H          1 MOL1         0.0783
      77    C23     21.819632   23.565353   20.559885 C.3        1 MOL1         0.1043
      78    H37     21.761742   22.600061   20.038973 H          1 MOL1         0.0783
      79    O19     23.120260   23.702498   21.188575 O.3        1 MOL1        -0.3740
      80    C24     21.690499   24.675542   19.493480 C.3        1 MOL1         0.0138
      81    H38     20.761521   24.522029   18.928359 H          1 MOL1         0.0794
      82    H39     22.523408   24.582277   18.783767 H          1 MOL1         0.0794
      83    O20     21.693005   25.973605   20.094712 O.3        1 MOL1        -0.5486
      84    H40     22.530520   26.038861   20.605544 H          1 MOL1         0.3769
      85    C25     25.087543   17.737868   21.009465 C.3        1 MOL1         0.2972
      86    H41     25.750617   16.890916   20.790752 H          1 MOL1         0.0751
      87    O21     23.712381   17.312168   21.126374 O.3        1 MOL1        -0.3740
      88    C26     25.536795   18.484235   22.295062 C.3        1 MOL1         0.1003
      89    H42     26.539970   18.883081   22.095424 H          1 MOL1         0.0783
      90    O22     25.609615   17.616039   23.435160 O.3        1 MOL1        -0.5519
      91    H43     24.682924   17.326538   23.631039 H          1 MOL1         0.3769
      92    C27     24.602598   19.683114   22.586791 C.3        1 MOL1         0.1053
      93    H44     23.611678   19.287429   22.850629 H          1 MOL1         0.0783
      94    O23     25.138472   20.430890   23.683503 O.3        1 MOL1        -0.5519
      95    H45     25.456993   19.753525   24.322727 H          1 MOL1         0.3769
      96    C28     24.440703   20.597605   21.342452 C.3        1 MOL1         0.1018
      97    H46     25.338865   21.217671   21.220144 H          1 MOL1         0.0783
      98    C29     24.207770   19.800434   20.030208 C.3        1 MOL1         0.1043
      99    H47     23.180452   19.415258   20.025788 H          1 MOL1         0.0783
     100    O24     25.152984   18.704152   19.939774 O.3        1 MOL1        -0.3740
     101    C30     24.399958   20.689417   18.783916 C.3        1 MOL1         0.0138
     102    H48     25.441523   21.035116   18.743004 H          1 MOL1         0.0794
     103    H49     23.756586   21.575417   18.868533 H          1 MOL1         0.0794
     104    O25     24.069016   19.957667   17.602793 O.3        1 MOL1        -0.5486
     105    H50     24.550171   19.102830   17.668268 H          1 MOL1         0.3769
     106    C31     21.289361   14.032624   21.943424 C.3        1 MOL1         0.2972
     107    H51     20.887876   13.058123   22.249469 H          1 MOL1         0.0751
     108    O26     20.324661   14.784405   21.177994 O.3        1 MOL1        -0.3740
     109    C32     21.732051   14.852534   23.186748 C.3        1 MOL1         0.1003
     110    H52     22.507932   14.264372   23.694072 H          1 MOL1         0.0783
     111    O27     20.652421   15.084164   24.104767 O.3        1 MOL1        -0.5519
     112    H53     19.952274   14.416826   23.907347 H          1 MOL1         0.3769
     113    C33     22.355576   16.203694   22.771186 C.3        1 MOL1         0.1053
     114    H54     21.561646   16.823702   22.334546 H          1 MOL1         0.0783
     115    O28     22.881084   16.841644   23.939147 O.3        1 MOL1        -0.5519
     116    H55     22.159689   16.763720   24.604082 H          1 MOL1         0.3769
     117    C34     23.469620   16.016081   21.710693 C.3        1 MOL1         0.1018
     118    H56     24.363899   15.615716   22.205948 H          1 MOL1         0.0783
     119    C35     23.036616   15.059497   20.563256 C.3        1 MOL1         0.1043
     120    H57     22.290580   15.573992   19.943577 H          1 MOL1         0.0783
     121    O29     22.458429   13.848738   21.115229 O.3        1 MOL1        -0.3740
     122    C36     24.203266   14.646815   19.638376 C.3        1 MOL1         0.0138
     123    H58     24.581607   15.538642   19.121315 H          1 MOL1         0.0794
     124    H59     23.819662   13.962482   18.869823 H          1 MOL1         0.0794
     125    O30     25.256218   14.022466   20.378760 O.3        1 MOL1        -0.5486
     126    H60     24.852210   13.251278   20.835531 H          1 MOL1         0.3769
     127    C1      20.259955   19.637468   20.571903 C.3        1 MOL1        -0.1693
     128    H1      19.357708   20.026718   21.060938 H          1 MOL1         0.0829
     129    H2      21.132895   19.925522   21.164397 H          1 MOL1         0.0829
     130    C2      20.350168   19.901871   19.033525 C.3        1 MOL1        -0.1768
     131    H3      19.902922   20.831155   18.668270 H          1 MOL1         0.0829
     132    H4      21.356904   19.814596   18.608334 H          1 MOL1         0.0829
     133    C3      19.483017   18.615082   18.880414 C.3        1 MOL1         0.1211
     134    H5      18.404257   18.785889   18.995823 H          1 MOL1         0.0786
     135    C4      20.190556   18.128662   20.181826 C.3        1 MOL1        -0.1768
     136    H6      19.599975   17.502857   20.858070 H          1 MOL1         0.0829
     137    H7      21.164478   17.654769   20.015381 H          1 MOL1         0.0829
     138    O1      19.756709   17.869434   17.715026 O.3        1 MOL1        -0.5515
     139    H8      19.315044   16.990743   17.775981 H          1 MOL1         0.3773
@<TRIPOS>BOND
    1     1     2    1
    2     1     3    1
    3     1     4    1
    4     4     5    1
    5     4     6    1
    6     6     7    1
    7     4     8    1
    8     8     9    1
    9     8    10    1
   10    10    11    1
   11     8    12    1
   12    12    13    1
   13    12    14    1
   14    14    15    1
   15     1    16    1
   16    14    16    1
   17    14    17    1
   18    17    18    1
   19    17    19    1
   20    17    20    1
   21    20    21    1
   22    22    23    1
   23    22    24    1
   24    22    25    1
   25    25    26    1
   26    25    27    1
   27    27    28    1
   28    25    29    1
   29    29    30    1
   30    29    31    1
   31    31    32    1
   32     3    33    1
   33    29    33    1
   34    33    34    1
   35    33    35    1
   36    35    36    1
   37    22    37    1
   38    35    37    1
   39    35    38    1
   40    38    39    1
   41    38    40    1
   42    38    41    1
   43    41    42    1
   44    43    44    1
   45    43    45    1
   46    43    46    1
   47    46    47    1
   48    46    48    1
   49    48    49    1
   50    46    50    1
   51    50    51    1
   52    50    52    1
   53    52    53    1
   54    24    54    1
   55    50    54    1
   56    54    55    1
   57    54    56    1
   58    56    57    1
   59    43    58    1
   60    56    58    1
   61    56    59    1
   62    59    60    1
   63    59    61    1
   64    59    62    1
   65    62    63    1
   66    64    65    1
   67    64    66    1
   68    64    67    1
   69    67    68    1
   70    67    69    1
   71    69    70    1
   72    67    71    1
   73    71    72    1
   74    71    73    1
   75    73    74    1
   76    45    75    1
   77    71    75    1
   78    75    76    1
   79    75    77    1
   80    77    78    1
   81    64    79    1
   82    77    79    1
   83    77    80    1
   84    80    81    1
   85    80    82    1
   86    80    83    1
   87    83    84    1
   88    85    86    1
   89    85    87    1
   90    85    88    1
   91    88    89    1
   92    88    90    1
   93    90    91    1
   94    88    92    1
   95    92    93    1
   96    92    94    1
   97    94    95    1
   98    66    96    1
   99    92    96    1
  100    96    97    1
  101    96    98    1
  102    98    99    1
  103    85   100    1
  104    98   100    1
  105    98   101    1
  106   101   102    1
  107   101   103    1
  108   101   104    1
  109   104   105    1
  110   106   107    1
  111    12   108    1
  112   106   108    1
  113   106   109    1
  114   109   110    1
  115   109   111    1
  116   111   112    1
  117   109   113    1
  118   113   114    1
  119   113   115    1
  120   115   116    1
  121    87   117    1
  122   113   117    1
  123   117   118    1
  124   117   119    1
  125   119   120    1
  126   106   121    1
  127   119   121    1
  128   119   122    1
  129   122   123    1
  130   122   124    1
  131   122   125    1
  132   125   126    1
  133   127   128    1
  134   127   129    1
  135   127   130    1
  136   130   131    1
  137   130   132    1
  138   130   133    1
  139   133   134    1
  140   127   135    1
  141   133   135    1
  142   135   136    1
  143   135   137    1
  144   133   138    1
  145   138   139    1
@<TRIPOS>SUBSTRUCTURE
       1 MOL1            1 RESIDUE      1      MOL     
       2 MOL1          139 RESIDUE      1      MOL     
@<SCITEGIC>MOL_PROPERTY
VM2 Rank
SciTegic.value.IntegerValue
1

@<SCITEGIC>MOL_PROPERTY
Conf_Id
SciTegic.value.IntegerValue
22253

@<SCITEGIC>MOL_PROPERTY
Probability
SciTegic.value.DoubleValue
1.86

@<SCITEGIC>MOL_PROPERTY
Sum Probability
SciTegic.value.DoubleValue
1.86

@<SCITEGIC>MOL_PROPERTY
Delta G
SciTegic.value.DoubleValue
0.000

@<SCITEGIC>MOL_PROPERTY
G
SciTegic.value.DoubleValue
538.069

@<SCITEGIC>MOL_PROPERTY
E
SciTegic.value.DoubleValue
359.010

@<SCITEGIC>MOL_PROPERTY
-TS
SciTegic.value.DoubleValue
179.059

@<SCITEGIC>MOL_PROPERTY
U+W
SciTegic.value.DoubleValue
236.498

@<SCITEGIC>MOL_PROPERTY
U
SciTegic.value.DoubleValue
269.507

@<SCITEGIC>MOL_PROPERTY
W
SciTegic.value.DoubleValue
-33.009

@<SCITEGIC>MOL_PROPERTY
W(PB)
SciTegic.value.DoubleValue
-39.049

@<SCITEGIC>MOL_PROPERTY
W(SA)
SciTegic.value.DoubleValue
6.040

@<SCITEGIC>MOL_PROPERTY
Valence
SciTegic.value.DoubleValue
149.677

@<SCITEGIC>MOL_PROPERTY
Coulomb
SciTegic.value.DoubleValue
136.840

@<SCITEGIC>MOL_PROPERTY
VdW
SciTegic.value.DoubleValue
-17.010

@<SCITEGIC>MOL_PROPERTY
VdW6
SciTegic.value.DoubleValue
-163.943

@<SCITEGIC>MOL_PROPERTY
VdW12
SciTegic.value.DoubleValue
146.933

@<SCITEGIC>MOL_PROPERTY
Bond
SciTegic.value.DoubleValue
4.599

@<SCITEGIC>MOL_PROPERTY
Angle
SciTegic.value.DoubleValue
11.338

@<SCITEGIC>MOL_PROPERTY
Pdih
SciTegic.value.DoubleValue
133.740

@<SCITEGIC>MOL_PROPERTY
Idih
SciTegic.value.DoubleValue
0.000

@<SCITEGIC>MOL_PROPERTY
Tether
SciTegic.value.DoubleValue
0.000

