@<TRIPOS>MOLECULE
CD_guest-5_vm2_rndm.mol2 : vm2 host+ligand conformer 1
         148         154           2
SMALL
USER_CHARGES
 
@<TRIPOS>ATOM
       1    C1      16.215932   15.104570   21.119980 C.3        1 MOL1         0.2972
       2    H1      15.137034   14.975558   20.964336 H          1 MOL1         0.0751
       3    O1      16.547489   16.465971   21.459682 O.3        1 MOL1        -0.3740
       4    C2      16.718698   14.181197   22.258957 C.3        1 MOL1         0.1003
       5    H2      16.497716   13.145669   21.969334 H          1 MOL1         0.0783
       6    O2      16.064362   14.480857   23.499993 O.3        1 MOL1        -0.5519
       7    H3      16.545258   13.945125   24.170299 H          1 MOL1         0.3769
       8    C3      18.248212   14.316230   22.436024 C.3        1 MOL1         0.1053
       9    H4      18.446317   15.326252   22.812834 H          1 MOL1         0.0783
      10    O3      18.719658   13.340999   23.374258 O.3        1 MOL1        -0.5519
      11    H5      19.707783   13.391670   23.363524 H          1 MOL1         0.3769
      12    C4      19.002524   14.151874   21.094991 C.3        1 MOL1         0.1018
      13    H6      19.007359   13.087877   20.824199 H          1 MOL1         0.0783
      14    C5      18.364731   14.982071   19.947301 C.3        1 MOL1         0.1043
      15    H7      18.570124   16.045665   20.127951 H          1 MOL1         0.0783
      16    O4      16.934207   14.755794   19.917764 O.3        1 MOL1        -0.3740
      17    C6      18.916871   14.624222   18.550152 C.3        1 MOL1         0.0138
      18    H8      19.986310   14.862712   18.515964 H          1 MOL1         0.0794
      19    H9      18.418584   15.254833   17.801851 H          1 MOL1         0.0794
      20    O5      18.708886   13.240759   18.250715 O.3        1 MOL1        -0.5486
      21    H10     17.743150   13.083152   18.344636 H          1 MOL1         0.3769
      22    C7      14.895674   20.243608   21.638931 C.3        1 MOL1         0.2972
      23    H11     14.242092   21.121770   21.713569 H          1 MOL1         0.0751
      24    O6      16.243218   20.611416   21.277105 O.3        1 MOL1        -0.3740
      25    C8      14.926705   19.487867   22.989957 C.3        1 MOL1         0.1003
      26    H12     13.901443   19.159136   23.204283 H          1 MOL1         0.0783
      27    O7      15.376734   20.340895   24.051884 O.3        1 MOL1        -0.5519
      28    H13     15.543004   19.731426   24.805462 H          1 MOL1         0.3769
      29    C9      15.817142   18.226922   22.894568 C.3        1 MOL1         0.1053
      30    H14     16.858032   18.549007   22.771032 H          1 MOL1         0.0783
      31    O8      15.686683   17.453049   24.093010 O.3        1 MOL1        -0.5519
      32    H15     16.007688   16.543587   23.878377 H          1 MOL1         0.3769
      33    C10     15.433830   17.352233   21.675429 C.3        1 MOL1         0.1018
      34    H16     14.515230   16.802880   21.921893 H          1 MOL1         0.0783
      35    C11     15.227712   18.177285   20.372637 C.3        1 MOL1         0.1043
      36    H17     16.211976   18.507449   20.016193 H          1 MOL1         0.0783
      37    O9      14.393991   19.331154   20.640983 O.3        1 MOL1        -0.3740
      38    C12     14.558950   17.379482   19.230639 C.3        1 MOL1         0.0138
      39    H18     15.229883   16.570547   18.914216 H          1 MOL1         0.0794
      40    H19     14.424886   18.045613   18.367718 H          1 MOL1         0.0794
      41    O10     13.298516   16.842977   19.643485 O.3        1 MOL1        -0.5486
      42    H20     12.752494   17.610155   19.926033 H          1 MOL1         0.3769
      43    C13     18.500221   24.052995   20.652420 C.3        1 MOL1         0.2972
      44    H21     18.884246   25.028467   20.327812 H          1 MOL1         0.0751
      45    O11     19.508780   23.278616   21.325924 O.3        1 MOL1        -0.3740
      46    C14     17.309093   24.232013   21.629299 C.3        1 MOL1         0.1003
      47    H22     16.527154   24.791176   21.099356 H          1 MOL1         0.0783
      48    O12     17.709502   24.961440   22.799059 O.3        1 MOL1        -0.5519
      49    H23     16.939294   24.899984   23.407238 H          1 MOL1         0.3769
      50    C15     16.721038   22.861946   22.047840 C.3        1 MOL1         0.1053
      51    H24     17.472513   22.352684   22.659191 H          1 MOL1         0.0783
      52    O13     15.540103   23.063219   22.833743 O.3        1 MOL1        -0.5519
      53    H25     15.401262   22.219793   23.331779 H          1 MOL1         0.3769
      54    C16     16.422692   21.964597   20.814622 C.3        1 MOL1         0.1018
      55    H26     15.527774   22.332539   20.295354 H          1 MOL1         0.0783
      56    C17     17.607390   21.937009   19.811728 C.3        1 MOL1         0.1043
      57    H27     18.434886   21.370739   20.260774 H          1 MOL1         0.0783
      58    O14     18.032342   23.291234   19.520163 O.3        1 MOL1        -0.3740
      59    C18     17.249088   21.263355   18.468621 C.3        1 MOL1         0.0138
      60    H28     16.940063   20.227393   18.656942 H          1 MOL1         0.0794
      61    H29     18.150085   21.228839   17.841797 H          1 MOL1         0.0794
      62    O15     16.205385   21.975108   17.797159 O.3        1 MOL1        -0.5486
      63    H30     16.506805   22.909385   17.743272 H          1 MOL1         0.3769
      64    C19     23.580920   22.874445   21.841942 C.3        1 MOL1         0.2972
      65    H31     24.662519   23.033474   21.933480 H          1 MOL1         0.0751
      66    O16     23.238160   21.471063   21.920357 O.3        1 MOL1        -0.3740
      67    C20     22.845938   23.635752   22.973252 C.3        1 MOL1         0.1003
      68    H32     23.102356   24.698776   22.877270 H          1 MOL1         0.0783
      69    O17     23.250570   23.163166   24.265554 O.3        1 MOL1        -0.5519
      70    H33     22.623528   23.587918   24.892784 H          1 MOL1         0.3769
      71    C21     21.315902   23.498214   22.825476 C.3        1 MOL1         0.1053
      72    H34     21.060928   22.451644   23.016692 H          1 MOL1         0.0783
      73    O18     20.649947   24.344284   23.771116 O.3        1 MOL1        -0.5519
      74    H35     19.699296   24.365130   23.503167 H          1 MOL1         0.3769
      75    C22     20.829612   23.842492   21.399942 C.3        1 MOL1         0.1018
      76    H36     20.818763   24.934724   21.287722 H          1 MOL1         0.0783
      77    C23     21.705704   23.193768   20.290235 C.3        1 MOL1         0.1043
      78    H37     21.491521   22.118457   20.257088 H          1 MOL1         0.0783
      79    O19     23.109174   23.400512   20.583603 O.3        1 MOL1        -0.3740
      80    C24     21.443649   23.768826   18.880527 C.3        1 MOL1         0.0138
      81    H38     20.415704   23.533414   18.578334 H          1 MOL1         0.0794
      82    H39     22.113243   23.269627   18.167511 H          1 MOL1         0.0794
      83    O20     21.656724   25.183370   18.852278 O.3        1 MOL1        -0.5486
      84    H40     22.578095   25.326784   19.163815 H          1 MOL1         0.3769
      85    C25     25.036718   17.695796   21.790117 C.3        1 MOL1         0.2972
      86    H41     25.765451   16.876476   21.751467 H          1 MOL1         0.0751
      87    O21     23.685200   17.211657   21.681818 O.3        1 MOL1        -0.3740
      88    C26     25.188192   18.472075   23.123434 C.3        1 MOL1         0.1003
      89    H42     26.214505   18.859818   23.161144 H          1 MOL1         0.0783
      90    O22     24.967001   17.618461   24.254323 O.3        1 MOL1        -0.5519
      91    H43     24.905714   18.234924   25.018472 H          1 MOL1         0.3769
      92    C27     24.224255   19.678339   23.180070 C.3        1 MOL1         0.1053
      93    H44     23.200166   19.289246   23.223227 H          1 MOL1         0.0783
      94    O23     24.507566   20.459789   24.347348 O.3        1 MOL1        -0.5519
      95    H45     23.973722   21.289919   24.279246 H          1 MOL1         0.3769
      96    C28     24.357795   20.558762   21.914880 C.3        1 MOL1         0.1018
      97    H46     25.319807   21.085788   21.962675 H          1 MOL1         0.0783
      98    C29     24.306303   19.717774   20.610078 C.3        1 MOL1         0.1043
      99    H47     23.287435   19.326638   20.484086 H          1 MOL1         0.0783
     100    O24     25.254009   18.621634   20.703715 O.3        1 MOL1        -0.3740
     101    C30     24.665440   20.528819   19.345506 C.3        1 MOL1         0.0138
     102    H48     23.933907   21.336147   19.214515 H          1 MOL1         0.0794
     103    H49     24.585046   19.870396   18.470311 H          1 MOL1         0.0794
     104    O25     25.987196   21.068680   19.439595 O.3        1 MOL1        -0.5486
     105    H50     26.581046   20.305348   19.615586 H          1 MOL1         0.3769
     106    C31     21.424972   13.803736   20.953225 C.3        1 MOL1         0.2972
     107    H51     21.078938   12.804275   20.661486 H          1 MOL1         0.0751
     108    O26     20.329166   14.661124   21.329261 O.3        1 MOL1        -0.3740
     109    C32     22.393994   13.701749   22.158775 C.3        1 MOL1         0.1003
     110    H52     23.232610   13.063267   21.852079 H          1 MOL1         0.0783
     111    O27     21.744568   13.116924   23.297066 O.3        1 MOL1        -0.5519
     112    H53     22.384422   13.232841   24.034805 H          1 MOL1         0.3769
     113    C33     22.964976   15.089060   22.537806 C.3        1 MOL1         0.1053
     114    H54     22.146765   15.690161   22.952318 H          1 MOL1         0.0783
     115    O28     23.994815   14.930615   23.520726 O.3        1 MOL1        -0.5519
     116    H55     24.274985   15.842230   23.786194 H          1 MOL1         0.3769
     117    C34     23.526621   15.832930   21.300004 C.3        1 MOL1         0.1018
     118    H56     24.478337   15.373568   21.001442 H          1 MOL1         0.0783
     119    C35     22.556006   15.796281   20.091358 C.3        1 MOL1         0.1043
     120    H57     21.688913   16.435398   20.304509 H          1 MOL1         0.0783
     121    O29     22.139471   14.427239   19.864748 O.3        1 MOL1        -0.3740
     122    C36     23.227084   16.299781   18.796227 C.3        1 MOL1         0.0138
     123    H58     24.091400   15.663370   18.563966 H          1 MOL1         0.0794
     124    H59     23.597682   17.320708   18.954336 H          1 MOL1         0.0794
     125    O30     22.289990   16.283921   17.717618 O.3        1 MOL1        -0.5486
     126    H60     21.945731   15.364728   17.672861 H          1 MOL1         0.3769
     127    C1      20.879050   17.821296   25.150336 C.3        1 MOL1        -0.1685
     128    H1      20.813396   17.110099   25.984629 H          1 MOL1         0.0832
     129    H2      21.929928   17.811601   24.830307 H          1 MOL1         0.0832
     130    C2      20.508714   19.220375   25.685533 C.3        1 MOL1        -0.1685
     131    H3      19.514535   19.181263   26.150895 H          1 MOL1         0.0832
     132    H4      21.210493   19.478944   26.489888 H          1 MOL1         0.0832
     133    C3      20.536625   20.345718   24.629160 C.3        1 MOL1        -0.1685
     134    H5      21.517248   20.395729   24.144508 H          1 MOL1         0.0832
     135    H6      20.414136   21.300442   25.158570 H          1 MOL1         0.0832
     136    C4      19.404158   20.232163   23.580238 C.3        1 MOL1        -0.1761
     137    H7      18.483647   19.887558   24.068302 H          1 MOL1         0.0832
     138    H8      19.176098   21.236604   23.212993 H          1 MOL1         0.0832
     139    C5      19.697179   19.343109   22.350451 C.3        1 MOL1         0.1218
     140    H9      18.739583   19.181297   21.837102 H          1 MOL1         0.0789
     141    C6      20.314607   17.955694   22.636447 C.3        1 MOL1        -0.1761
     142    H10     19.973804   17.281819   21.841832 H          1 MOL1         0.0832
     143    H11     21.402674   18.007465   22.531081 H          1 MOL1         0.0832
     144    C7      19.976239   17.313632   24.003510 C.3        1 MOL1        -0.1685
     145    H12     18.913442   17.443069   24.249221 H          1 MOL1         0.0832
     146    H13     20.140217   16.232016   23.920367 H          1 MOL1         0.0832
     147    O1      20.561275   20.045204   21.466072 O.3        1 MOL1        -0.5509
     148    H14     21.332159   20.333327   21.995250 H          1 MOL1         0.3779
@<TRIPOS>BOND
    1     1     2    1
    2     1     3    1
    3     1     4    1
    4     4     5    1
    5     4     6    1
    6     6     7    1
    7     4     8    1
    8     8     9    1
    9     8    10    1
   10    10    11    1
   11     8    12    1
   12    12    13    1
   13    12    14    1
   14    14    15    1
   15     1    16    1
   16    14    16    1
   17    14    17    1
   18    17    18    1
   19    17    19    1
   20    17    20    1
   21    20    21    1
   22    22    23    1
   23    22    24    1
   24    22    25    1
   25    25    26    1
   26    25    27    1
   27    27    28    1
   28    25    29    1
   29    29    30    1
   30    29    31    1
   31    31    32    1
   32     3    33    1
   33    29    33    1
   34    33    34    1
   35    33    35    1
   36    35    36    1
   37    22    37    1
   38    35    37    1
   39    35    38    1
   40    38    39    1
   41    38    40    1
   42    38    41    1
   43    41    42    1
   44    43    44    1
   45    43    45    1
   46    43    46    1
   47    46    47    1
   48    46    48    1
   49    48    49    1
   50    46    50    1
   51    50    51    1
   52    50    52    1
   53    52    53    1
   54    24    54    1
   55    50    54    1
   56    54    55    1
   57    54    56    1
   58    56    57    1
   59    43    58    1
   60    56    58    1
   61    56    59    1
   62    59    60    1
   63    59    61    1
   64    59    62    1
   65    62    63    1
   66    64    65    1
   67    64    66    1
   68    64    67    1
   69    67    68    1
   70    67    69    1
   71    69    70    1
   72    67    71    1
   73    71    72    1
   74    71    73    1
   75    73    74    1
   76    45    75    1
   77    71    75    1
   78    75    76    1
   79    75    77    1
   80    77    78    1
   81    64    79    1
   82    77    79    1
   83    77    80    1
   84    80    81    1
   85    80    82    1
   86    80    83    1
   87    83    84    1
   88    85    86    1
   89    85    87    1
   90    85    88    1
   91    88    89    1
   92    88    90    1
   93    90    91    1
   94    88    92    1
   95    92    93    1
   96    92    94    1
   97    94    95    1
   98    66    96    1
   99    92    96    1
  100    96    97    1
  101    96    98    1
  102    98    99    1
  103    85   100    1
  104    98   100    1
  105    98   101    1
  106   101   102    1
  107   101   103    1
  108   101   104    1
  109   104   105    1
  110   106   107    1
  111    12   108    1
  112   106   108    1
  113   106   109    1
  114   109   110    1
  115   109   111    1
  116   111   112    1
  117   109   113    1
  118   113   114    1
  119   113   115    1
  120   115   116    1
  121    87   117    1
  122   113   117    1
  123   117   118    1
  124   117   119    1
  125   119   120    1
  126   106   121    1
  127   119   121    1
  128   119   122    1
  129   122   123    1
  130   122   124    1
  131   122   125    1
  132   125   126    1
  133   127   128    1
  134   127   129    1
  135   127   130    1
  136   130   131    1
  137   130   132    1
  138   130   133    1
  139   133   134    1
  140   133   135    1
  141   133   136    1
  142   136   137    1
  143   136   138    1
  144   136   139    1
  145   139   140    1
  146   139   141    1
  147   141   142    1
  148   141   143    1
  149   127   144    1
  150   141   144    1
  151   144   145    1
  152   144   146    1
  153   139   147    1
  154   147   148    1
@<TRIPOS>SUBSTRUCTURE
       1 MOL1            1 RESIDUE      1      MOL     
       2 MOL1          148 RESIDUE      1      MOL     
@<SCITEGIC>MOL_PROPERTY
VM2 Rank
SciTegic.value.IntegerValue
1

@<SCITEGIC>MOL_PROPERTY
Conf_Id
SciTegic.value.IntegerValue
19858

@<SCITEGIC>MOL_PROPERTY
Probability
SciTegic.value.DoubleValue
2.42

@<SCITEGIC>MOL_PROPERTY
Sum Probability
SciTegic.value.DoubleValue
2.42

@<SCITEGIC>MOL_PROPERTY
Delta G
SciTegic.value.DoubleValue
0.000

@<SCITEGIC>MOL_PROPERTY
G
SciTegic.value.DoubleValue
563.011

@<SCITEGIC>MOL_PROPERTY
E
SciTegic.value.DoubleValue
367.740

@<SCITEGIC>MOL_PROPERTY
-TS
SciTegic.value.DoubleValue
195.271

@<SCITEGIC>MOL_PROPERTY
U+W
SciTegic.value.DoubleValue
237.180

@<SCITEGIC>MOL_PROPERTY
U
SciTegic.value.DoubleValue
267.139

@<SCITEGIC>MOL_PROPERTY
W
SciTegic.value.DoubleValue
-29.959

@<SCITEGIC>MOL_PROPERTY
W(PB)
SciTegic.value.DoubleValue
-36.145

@<SCITEGIC>MOL_PROPERTY
W(SA)
SciTegic.value.DoubleValue
6.186

@<SCITEGIC>MOL_PROPERTY
Valence
SciTegic.value.DoubleValue
155.099

@<SCITEGIC>MOL_PROPERTY
Coulomb
SciTegic.value.DoubleValue
139.218

@<SCITEGIC>MOL_PROPERTY
VdW
SciTegic.value.DoubleValue
-27.177

@<SCITEGIC>MOL_PROPERTY
VdW6
SciTegic.value.DoubleValue
-177.583

@<SCITEGIC>MOL_PROPERTY
VdW12
SciTegic.value.DoubleValue
150.405

@<SCITEGIC>MOL_PROPERTY
Bond
SciTegic.value.DoubleValue
4.134

@<SCITEGIC>MOL_PROPERTY
Angle
SciTegic.value.DoubleValue
11.659

@<SCITEGIC>MOL_PROPERTY
Pdih
SciTegic.value.DoubleValue
139.305

@<SCITEGIC>MOL_PROPERTY
Idih
SciTegic.value.DoubleValue
0.000

@<SCITEGIC>MOL_PROPERTY
Tether
SciTegic.value.DoubleValue
0.000

@<TRIPOS>MOLECULE
CD_guest-5_vm2_rndm.mol2 : vm2 host+ligand conformer 2
         148         154           2
SMALL
USER_CHARGES
 
@<TRIPOS>ATOM
       1    C1      16.101843   14.990279   21.516778 C.3        1 MOL1         0.2972
       2    H1      15.015903   14.834716   21.525247 H          1 MOL1         0.0751
       3    O1      16.448802   16.382720   21.668209 O.3        1 MOL1        -0.3740
       4    C2      16.770238   14.190666   22.662184 C.3        1 MOL1         0.1003
       5    H2      16.555448   13.127160   22.494976 H          1 MOL1         0.0783
       6    O2      16.257815   14.585124   23.941962 O.3        1 MOL1        -0.5519
       7    H3      16.844834   14.137353   24.592213 H          1 MOL1         0.3769
       8    C3      18.302472   14.382175   22.634252 C.3        1 MOL1         0.1053
       9    H4      18.507017   15.428391   22.888107 H          1 MOL1         0.0783
      10    O3      18.918365   13.512699   23.592293 O.3        1 MOL1        -0.5519
      11    H5      19.887687   13.515739   23.395803 H          1 MOL1         0.3769
      12    C4      18.896697   14.109434   21.232015 C.3        1 MOL1         0.1018
      13    H6      18.941503   13.022741   21.080695 H          1 MOL1         0.0783
      14    C5      18.079804   14.772633   20.086881 C.3        1 MOL1         0.1043
      15    H7      18.267193   15.854733   20.107369 H          1 MOL1         0.0783
      16    O4      16.664977   14.518615   20.274842 O.3        1 MOL1        -0.3740
      17    C6      18.460564   14.255124   18.681869 C.3        1 MOL1         0.0138
      18    H8      19.504621   14.519068   18.470431 H          1 MOL1         0.0794
      19    H9      17.837928   14.768421   17.936887 H          1 MOL1         0.0794
      20    O5      18.280078   12.838895   18.587695 O.3        1 MOL1        -0.5486
      21    H10     17.341106   12.666327   18.822266 H          1 MOL1         0.3769
      22    C7      14.845339   20.206218   21.686045 C.3        1 MOL1         0.2972
      23    H11     14.179697   21.078134   21.716298 H          1 MOL1         0.0751
      24    O6      16.201513   20.583861   21.374179 O.3        1 MOL1        -0.3740
      25    C8      14.821813   19.476804   23.051677 C.3        1 MOL1         0.1003
      26    H12     13.786195   19.161441   23.233893 H          1 MOL1         0.0783
      27    O7      15.238729   20.346477   24.113492 O.3        1 MOL1        -0.5519
      28    H13     15.367515   19.750600   24.885169 H          1 MOL1         0.3769
      29    C9      15.702131   18.205976   23.018312 C.3        1 MOL1         0.1053
      30    H14     16.751793   18.515187   22.933326 H          1 MOL1         0.0783
      31    O8      15.507973   17.462508   24.227182 O.3        1 MOL1        -0.5519
      32    H15     15.912111   16.571158   24.084905 H          1 MOL1         0.3769
      33    C10     15.358375   17.313521   21.799084 C.3        1 MOL1         0.1018
      34    H16     14.402668   16.808072   21.992096 H          1 MOL1         0.0783
      35    C11     15.262027   18.121180   20.475682 C.3        1 MOL1         0.1043
      36    H17     16.271679   18.439247   20.183557 H          1 MOL1         0.0783
      37    O9      14.403915   19.272244   20.679491 O.3        1 MOL1        -0.3740
      38    C12     14.658215   17.301213   19.316541 C.3        1 MOL1         0.0138
      39    H18     13.643691   16.980126   19.587977 H          1 MOL1         0.0794
      40    H19     15.263069   16.400874   19.151137 H          1 MOL1         0.0794
      41    O10     14.632696   18.090333   18.125568 O.3        1 MOL1        -0.5486
      42    H20     14.188296   18.932890   18.369512 H          1 MOL1         0.3769
      43    C13     18.427162   24.030253   20.686440 C.3        1 MOL1         0.2972
      44    H21     18.802968   25.003445   20.345683 H          1 MOL1         0.0751
      45    O11     19.443977   23.270695   21.364196 O.3        1 MOL1        -0.3740
      46    C14     17.243362   24.214068   21.670324 C.3        1 MOL1         0.1003
      47    H22     16.453596   24.761471   21.139715 H          1 MOL1         0.0783
      48    O12     17.646919   24.959902   22.828583 O.3        1 MOL1        -0.5519
      49    H23     16.880448   24.903371   23.441854 H          1 MOL1         0.3769
      50    C15     16.669444   22.844345   22.108181 C.3        1 MOL1         0.1053
      51    H24     17.425465   22.350136   22.727059 H          1 MOL1         0.0783
      52    O13     15.483547   23.045437   22.886466 O.3        1 MOL1        -0.5519
      53    H25     15.336011   22.199955   23.378914 H          1 MOL1         0.3769
      54    C16     16.378570   21.927994   20.887941 C.3        1 MOL1         0.1018
      55    H26     15.483508   22.286482   20.362037 H          1 MOL1         0.0783
      56    C17     17.556896   21.890929   19.879943 C.3        1 MOL1         0.1043
      57    H27     18.394312   21.333080   20.321601 H          1 MOL1         0.0783
      58    O14     17.951759   23.250250   19.568920 O.3        1 MOL1        -0.3740
      59    C18     17.161125   21.209492   18.552795 C.3        1 MOL1         0.0138
      60    H28     16.331085   21.763561   18.094629 H          1 MOL1         0.0794
      61    H29     16.808872   20.190123   18.757430 H          1 MOL1         0.0794
      62    O15     18.283239   21.170603   17.668886 O.3        1 MOL1        -0.5486
      63    H30     18.632307   22.088204   17.639482 H          1 MOL1         0.3769
      64    C19     23.525180   22.911583   21.849618 C.3        1 MOL1         0.2972
      65    H31     24.605865   23.081544   21.932599 H          1 MOL1         0.0751
      66    O16     23.197234   21.506159   21.926859 O.3        1 MOL1        -0.3740
      67    C20     22.789541   23.653912   22.992770 C.3        1 MOL1         0.1003
      68    H32     23.036129   24.720170   22.907773 H          1 MOL1         0.0783
      69    O17     23.207274   23.167705   24.276549 O.3        1 MOL1        -0.5519
      70    H33     22.583877   23.581642   24.914294 H          1 MOL1         0.3769
      71    C21     21.259013   23.503663   22.852700 C.3        1 MOL1         0.1053
      72    H34     21.012682   22.454549   23.042243 H          1 MOL1         0.0783
      73    O18     20.591436   24.341512   23.804364 O.3        1 MOL1        -0.5519
      74    H35     19.640242   24.358962   23.538471 H          1 MOL1         0.3769
      75    C22     20.759721   23.846208   21.430977 C.3        1 MOL1         0.1018
      76    H36     20.738455   24.938400   21.319847 H          1 MOL1         0.0783
      77    C23     21.633548   23.205257   20.315752 C.3        1 MOL1         0.1043
      78    H37     21.433810   22.126354   20.289631 H          1 MOL1         0.0783
      79    O19     23.035283   23.435865   20.597692 O.3        1 MOL1        -0.3740
      80    C24     21.351983   23.769843   18.905742 C.3        1 MOL1         0.0138
      81    H38     20.326797   23.514365   18.612223 H          1 MOL1         0.0794
      82    H39     22.025505   23.279861   18.190033 H          1 MOL1         0.0794
      83    O20     21.537998   25.187912   18.869950 O.3        1 MOL1        -0.5486
      84    H40     22.458601   25.350313   19.174276 H          1 MOL1         0.3769
      85    C25     24.939253   17.732838   21.664722 C.3        1 MOL1         0.2972
      86    H41     25.638870   16.889690   21.603073 H          1 MOL1         0.0751
      87    O21     23.573549   17.303258   21.504166 O.3        1 MOL1        -0.3740
      88    C26     25.090132   18.445230   23.033118 C.3        1 MOL1         0.1003
      89    H42     26.124109   18.807685   23.100868 H          1 MOL1         0.0783
      90    O22     24.835355   17.548292   24.122518 O.3        1 MOL1        -0.5519
      91    H43     24.773697   18.131938   24.911810 H          1 MOL1         0.3769
      92    C27     24.152553   19.669751   23.126934 C.3        1 MOL1         0.1053
      93    H44     23.119885   19.302548   23.138467 H          1 MOL1         0.0783
      94    O23     24.430099   20.398749   24.329338 O.3        1 MOL1        -0.5519
      95    H45     23.918057   21.243526   24.280616 H          1 MOL1         0.3769
      96    C28     24.321501   20.602102   21.904102 C.3        1 MOL1         0.1018
      97    H46     25.279124   21.129747   22.004519 H          1 MOL1         0.0783
      98    C29     24.302495   19.825420   20.558545 C.3        1 MOL1         0.1043
      99    H47     23.279773   19.468309   20.377325 H          1 MOL1         0.0783
     100    O24     25.216846   18.700937   20.631005 O.3        1 MOL1        -0.3740
     101    C30     24.729194   20.683283   19.346913 C.3        1 MOL1         0.0138
     102    H48     24.014071   21.504671   19.215176 H          1 MOL1         0.0794
     103    H49     24.681998   20.062069   18.442522 H          1 MOL1         0.0794
     104    O25     26.051486   21.200829   19.523021 O.3        1 MOL1        -0.5486
     105    H50     26.629688   20.421741   19.681478 H          1 MOL1         0.3769
     106    C31     21.278315   13.921325   20.697223 C.3        1 MOL1         0.2972
     107    H51     20.924420   12.944500   20.343838 H          1 MOL1         0.0751
     108    O26     20.205396   14.710233   21.245073 O.3        1 MOL1        -0.3740
     109    C32     22.358752   13.741020   21.795633 C.3        1 MOL1         0.1003
     110    H52     23.177811   13.156041   21.357492 H          1 MOL1         0.0783
     111    O27     21.832092   13.042070   22.932680 O.3        1 MOL1        -0.5519
     112    H53     22.541086   13.104052   23.611638 H          1 MOL1         0.3769
     113    C33     22.934550   15.105057   22.245843 C.3        1 MOL1         0.1053
     114    H54     22.139811   15.651780   22.769658 H          1 MOL1         0.0783
     115    O28     24.038258   14.889053   23.133374 O.3        1 MOL1        -0.5519
     116    H55     24.283969   15.776460   23.496747 H          1 MOL1         0.3769
     117    C34     23.384627   15.956285   21.031414 C.3        1 MOL1         0.1018
     118    H56     24.307648   15.536178   20.610201 H          1 MOL1         0.0783
     119    C35     22.304966   16.006298   19.918553 C.3        1 MOL1         0.1043
     120    H57     21.457370   16.605695   20.275697 H          1 MOL1         0.0783
     121    O29     21.866211   14.661108   19.606400 O.3        1 MOL1        -0.3740
     122    C36     22.819317   16.642781   18.608202 C.3        1 MOL1         0.0138
     123    H58     23.155014   17.667477   18.812869 H          1 MOL1         0.0794
     124    H59     21.985692   16.705426   17.896179 H          1 MOL1         0.0794
     125    O30     23.890460   15.875796   18.050344 O.3        1 MOL1        -0.5486
     126    H60     23.554955   14.954372   17.979515 H          1 MOL1         0.3769
     127    C1      20.974129   17.873420   25.243100 C.3        1 MOL1        -0.1685
     128    H1      20.971072   17.169077   26.085740 H          1 MOL1         0.0832
     129    H2      22.006530   17.888677   24.868929 H          1 MOL1         0.0832
     130    C2      20.593560   19.266607   25.785441 C.3        1 MOL1        -0.1685
     131    H3      19.620661   19.208386   26.291903 H          1 MOL1         0.0832
     132    H4      21.322241   19.547092   26.557922 H          1 MOL1         0.0832
     133    C3      20.553056   20.383302   24.721194 C.3        1 MOL1        -0.1685
     134    H5      21.513817   20.451883   24.200228 H          1 MOL1         0.0832
     135    H6      20.427314   21.339409   25.247318 H          1 MOL1         0.0832
     136    C4      19.385809   20.233030   23.715931 C.3        1 MOL1        -0.1761
     137    H7      18.491804   19.869688   24.238684 H          1 MOL1         0.0832
     138    H8      19.120027   21.229031   23.349417 H          1 MOL1         0.0832
     139    C5      19.657254   19.341902   22.482842 C.3        1 MOL1         0.1218
     140    H9      18.688803   19.178208   21.990066 H          1 MOL1         0.0789
     141    C6      20.281292   17.953632   22.755909 C.3        1 MOL1        -0.1761
     142    H10     19.887363   17.271117   21.993803 H          1 MOL1         0.0832
     143    H11     21.360733   17.992715   22.582645 H          1 MOL1         0.0832
     144    C7      20.027490   17.329748   24.149554 C.3        1 MOL1        -0.1685
     145    H12     18.975479   17.439175   24.446141 H          1 MOL1         0.0832
     146    H13     20.213396   16.250753   24.073993 H          1 MOL1         0.0832
     147    O1      20.502487   20.044784   21.580224 O.3        1 MOL1        -0.5509
     148    H14     21.283658   20.334205   22.092218 H          1 MOL1         0.3779
@<TRIPOS>BOND
    1     1     2    1
    2     1     3    1
    3     1     4    1
    4     4     5    1
    5     4     6    1
    6     6     7    1
    7     4     8    1
    8     8     9    1
    9     8    10    1
   10    10    11    1
   11     8    12    1
   12    12    13    1
   13    12    14    1
   14    14    15    1
   15     1    16    1
   16    14    16    1
   17    14    17    1
   18    17    18    1
   19    17    19    1
   20    17    20    1
   21    20    21    1
   22    22    23    1
   23    22    24    1
   24    22    25    1
   25    25    26    1
   26    25    27    1
   27    27    28    1
   28    25    29    1
   29    29    30    1
   30    29    31    1
   31    31    32    1
   32     3    33    1
   33    29    33    1
   34    33    34    1
   35    33    35    1
   36    35    36    1
   37    22    37    1
   38    35    37    1
   39    35    38    1
   40    38    39    1
   41    38    40    1
   42    38    41    1
   43    41    42    1
   44    43    44    1
   45    43    45    1
   46    43    46    1
   47    46    47    1
   48    46    48    1
   49    48    49    1
   50    46    50    1
   51    50    51    1
   52    50    52    1
   53    52    53    1
   54    24    54    1
   55    50    54    1
   56    54    55    1
   57    54    56    1
   58    56    57    1
   59    43    58    1
   60    56    58    1
   61    56    59    1
   62    59    60    1
   63    59    61    1
   64    59    62    1
   65    62    63    1
   66    64    65    1
   67    64    66    1
   68    64    67    1
   69    67    68    1
   70    67    69    1
   71    69    70    1
   72    67    71    1
   73    71    72    1
   74    71    73    1
   75    73    74    1
   76    45    75    1
   77    71    75    1
   78    75    76    1
   79    75    77    1
   80    77    78    1
   81    64    79    1
   82    77    79    1
   83    77    80    1
   84    80    81    1
   85    80    82    1
   86    80    83    1
   87    83    84    1
   88    85    86    1
   89    85    87    1
   90    85    88    1
   91    88    89    1
   92    88    90    1
   93    90    91    1
   94    88    92    1
   95    92    93    1
   96    92    94    1
   97    94    95    1
   98    66    96    1
   99    92    96    1
  100    96    97    1
  101    96    98    1
  102    98    99    1
  103    85   100    1
  104    98   100    1
  105    98   101    1
  106   101   102    1
  107   101   103    1
  108   101   104    1
  109   104   105    1
  110   106   107    1
  111    12   108    1
  112   106   108    1
  113   106   109    1
  114   109   110    1
  115   109   111    1
  116   111   112    1
  117   109   113    1
  118   113   114    1
  119   113   115    1
  120   115   116    1
  121    87   117    1
  122   113   117    1
  123   117   118    1
  124   117   119    1
  125   119   120    1
  126   106   121    1
  127   119   121    1
  128   119   122    1
  129   122   123    1
  130   122   124    1
  131   122   125    1
  132   125   126    1
  133   127   128    1
  134   127   129    1
  135   127   130    1
  136   130   131    1
  137   130   132    1
  138   130   133    1
  139   133   134    1
  140   133   135    1
  141   133   136    1
  142   136   137    1
  143   136   138    1
  144   136   139    1
  145   139   140    1
  146   139   141    1
  147   141   142    1
  148   141   143    1
  149   127   144    1
  150   141   144    1
  151   144   145    1
  152   144   146    1
  153   139   147    1
  154   147   148    1
@<TRIPOS>SUBSTRUCTURE
       1 MOL1            1 RESIDUE      1      MOL     
       2 MOL1          148 RESIDUE      1      MOL     
@<SCITEGIC>MOL_PROPERTY
VM2 Rank
SciTegic.value.IntegerValue
2

@<SCITEGIC>MOL_PROPERTY
Conf_Id
SciTegic.value.IntegerValue
24070

@<SCITEGIC>MOL_PROPERTY
Probability
SciTegic.value.DoubleValue
2.14

@<SCITEGIC>MOL_PROPERTY
Sum Probability
SciTegic.value.DoubleValue
4.56

@<SCITEGIC>MOL_PROPERTY
Delta G
SciTegic.value.DoubleValue
0.075

@<SCITEGIC>MOL_PROPERTY
G
SciTegic.value.DoubleValue
563.086

@<SCITEGIC>MOL_PROPERTY
E
SciTegic.value.DoubleValue
368.329

@<SCITEGIC>MOL_PROPERTY
-TS
SciTegic.value.DoubleValue
194.757

@<SCITEGIC>MOL_PROPERTY
U+W
SciTegic.value.DoubleValue
237.770

@<SCITEGIC>MOL_PROPERTY
U
SciTegic.value.DoubleValue
269.204

@<SCITEGIC>MOL_PROPERTY
W
SciTegic.value.DoubleValue
-31.434

@<SCITEGIC>MOL_PROPERTY
W(PB)
SciTegic.value.DoubleValue
-37.573

@<SCITEGIC>MOL_PROPERTY
W(SA)
SciTegic.value.DoubleValue
6.139

@<SCITEGIC>MOL_PROPERTY
Valence
SciTegic.value.DoubleValue
155.630

@<SCITEGIC>MOL_PROPERTY
Coulomb
SciTegic.value.DoubleValue
140.658

@<SCITEGIC>MOL_PROPERTY
VdW
SciTegic.value.DoubleValue
-27.085

@<SCITEGIC>MOL_PROPERTY
VdW6
SciTegic.value.DoubleValue
-176.259

@<SCITEGIC>MOL_PROPERTY
VdW12
SciTegic.value.DoubleValue
149.175

@<SCITEGIC>MOL_PROPERTY
Bond
SciTegic.value.DoubleValue
4.079

@<SCITEGIC>MOL_PROPERTY
Angle
SciTegic.value.DoubleValue
11.737

@<SCITEGIC>MOL_PROPERTY
Pdih
SciTegic.value.DoubleValue
139.815

@<SCITEGIC>MOL_PROPERTY
Idih
SciTegic.value.DoubleValue
0.000

@<SCITEGIC>MOL_PROPERTY
Tether
SciTegic.value.DoubleValue
0.000

@<TRIPOS>MOLECULE
CD_guest-5_vm2_rndm.mol2 : vm2 host+ligand conformer 3
         148         154           2
SMALL
USER_CHARGES
 
@<TRIPOS>ATOM
       1    C1      16.218081   15.043020   21.214593 C.3        1 MOL1         0.2972
       2    H1      15.137448   14.906360   21.078975 H          1 MOL1         0.0751
       3    O1      16.549652   16.409134   21.534218 O.3        1 MOL1        -0.3740
       4    C2      16.745146   14.137015   22.355325 C.3        1 MOL1         0.1003
       5    H2      16.522186   13.097097   22.083522 H          1 MOL1         0.0783
       6    O2      16.112598   14.451398   23.604175 O.3        1 MOL1        -0.5519
       7    H3      16.607102   13.926386   24.272911 H          1 MOL1         0.3769
       8    C3      18.277447   14.279605   22.501388 C.3        1 MOL1         0.1053
       9    H4      18.477344   15.290972   22.873592 H          1 MOL1         0.0783
      10    O3      18.768550   13.307261   23.432129 O.3        1 MOL1        -0.5519
      11    H5      19.756136   13.367065   23.412405 H          1 MOL1         0.3769
      12    C4      19.010223   14.117869   21.146837 C.3        1 MOL1         0.1018
      13    H6      19.018945   13.053839   20.875698 H          1 MOL1         0.0783
      14    C5      18.346829   14.936094   20.006037 C.3        1 MOL1         0.1043
      15    H7      18.546877   16.004226   20.166212 H          1 MOL1         0.0783
      16    O4      16.920767   14.679734   20.007735 O.3        1 MOL1        -0.3740
      17    C6      18.878608   14.544163   18.612124 C.3        1 MOL1         0.0138
      18    H8      18.684697   13.477738   18.435703 H          1 MOL1         0.0794
      19    H9      19.963548   14.697882   18.581336 H          1 MOL1         0.0794
      20    O5      18.249054   15.340330   17.606771 O.3        1 MOL1        -0.5486
      21    H10     17.282788   15.261073   17.767448 H          1 MOL1         0.3769
      22    C7      14.903264   20.195526   21.623153 C.3        1 MOL1         0.2972
      23    H11     14.246547   21.072980   21.675502 H          1 MOL1         0.0751
      24    O6      16.254148   20.561676   21.272983 O.3        1 MOL1        -0.3740
      25    C8      14.918594   19.462047   22.986828 C.3        1 MOL1         0.1003
      26    H12     13.890888   19.136855   23.194722 H          1 MOL1         0.0783
      27    O7      15.356473   20.332773   24.039477 O.3        1 MOL1        -0.5519
      28    H13     15.514095   19.736175   24.805101 H          1 MOL1         0.3769
      29    C9      15.809883   18.199793   22.922622 C.3        1 MOL1         0.1053
      30    H14     16.852281   18.519650   22.804309 H          1 MOL1         0.0783
      31    O8      15.666903   17.444918   24.131829 O.3        1 MOL1        -0.5519
      32    H15     16.005843   16.537013   23.939190 H          1 MOL1         0.3769
      33    C10     15.438386   17.305414   21.714567 C.3        1 MOL1         0.1018
      34    H16     14.512734   16.766442   21.957323 H          1 MOL1         0.0783
      35    C11     15.256422   18.109468   20.395386 C.3        1 MOL1         0.1043
      36    H17     16.247062   18.433825   20.051277 H          1 MOL1         0.0783
      37    O9      14.417730   19.266696   20.632340 O.3        1 MOL1        -0.3740
      38    C12     14.606911   17.295059   19.254207 C.3        1 MOL1         0.0138
      39    H18     15.283328   16.482550   18.960784 H          1 MOL1         0.0794
      40    H19     14.486987   17.948648   18.379679 H          1 MOL1         0.0794
      41    O10     13.340209   16.763237   19.653606 O.3        1 MOL1        -0.5486
      42    H20     12.788895   17.533846   19.915691 H          1 MOL1         0.3769
      43    C13     18.502172   23.998841   20.595453 C.3        1 MOL1         0.2972
      44    H21     18.884760   24.969441   20.254895 H          1 MOL1         0.0751
      45    O11     19.508824   23.241512   21.290605 O.3        1 MOL1        -0.3740
      46    C14     17.304110   24.191577   21.561136 C.3        1 MOL1         0.1003
      47    H22     16.522990   24.736763   21.015654 H          1 MOL1         0.0783
      48    O12     17.693916   24.945128   22.719129 O.3        1 MOL1        -0.5519
      49    H23     16.920572   24.891010   23.324005 H          1 MOL1         0.3769
      50    C15     16.720025   22.827001   22.002296 C.3        1 MOL1         0.1053
      51    H24     17.470638   22.332644   22.626960 H          1 MOL1         0.0783
      52    O13     15.533667   23.037029   22.777750 O.3        1 MOL1        -0.5519
      53    H25     15.392983   22.200507   23.286796 H          1 MOL1         0.3769
      54    C16     16.432629   21.905654   20.784482 C.3        1 MOL1         0.1018
      55    H26     15.539893   22.260789   20.252675 H          1 MOL1         0.0783
      56    C17     17.623520   21.863211   19.789525 C.3        1 MOL1         0.1043
      57    H27     18.450377   21.308906   20.254188 H          1 MOL1         0.0783
      58    O14     18.044813   23.213518   19.474945 O.3        1 MOL1        -0.3740
      59    C18     17.275951   21.162703   18.457334 C.3        1 MOL1         0.0138
      60    H28     16.969479   20.129314   18.663294 H          1 MOL1         0.0794
      61    H29     18.180956   21.119387   17.836852 H          1 MOL1         0.0794
      62    O15     16.234002   21.858014   17.766104 O.3        1 MOL1        -0.5486
      63    H30     16.532683   22.792094   17.696321 H          1 MOL1         0.3769
      64    C19     23.581013   22.858945   21.823070 C.3        1 MOL1         0.2972
      65    H31     24.661713   23.023028   21.916351 H          1 MOL1         0.0751
      66    O16     23.243241   21.455345   21.914487 O.3        1 MOL1        -0.3740
      67    C20     22.839010   23.628038   22.944496 C.3        1 MOL1         0.1003
      68    H32     23.091564   24.691115   22.839313 H          1 MOL1         0.0783
      69    O17     23.240928   23.169244   24.242645 O.3        1 MOL1        -0.5519
      70    H33     22.610555   23.598019   24.863749 H          1 MOL1         0.3769
      71    C21     21.309982   23.482939   22.792690 C.3        1 MOL1         0.1053
      72    H34     21.057868   22.437400   22.993827 H          1 MOL1         0.0783
      73    O18     20.637257   24.336225   23.726971 O.3        1 MOL1        -0.5519
      74    H35     19.688076   24.351565   23.453962 H          1 MOL1         0.3769
      75    C22     20.827332   23.810819   21.362054 C.3        1 MOL1         0.1018
      76    H36     20.812459   24.901810   21.238750 H          1 MOL1         0.0783
      77    C23     21.709756   23.154126   20.261969 C.3        1 MOL1         0.1043
      78    H37     21.500374   22.077534   20.239505 H          1 MOL1         0.0783
      79    O19     23.111198   23.370388   20.558039 O.3        1 MOL1        -0.3740
      80    C24     21.450787   23.713001   18.845161 C.3        1 MOL1         0.0138
      81    H38     20.425889   23.468014   18.540402 H          1 MOL1         0.0794
      82    H39     22.126816   23.210596   18.140517 H          1 MOL1         0.0794
      83    O20     21.655274   25.128474   18.803124 O.3        1 MOL1        -0.5486
      84    H40     22.574510   25.280837   19.116692 H          1 MOL1         0.3769
      85    C25     25.045055   17.683203   21.824464 C.3        1 MOL1         0.2972
      86    H41     25.771900   16.861684   21.798575 H          1 MOL1         0.0751
      87    O21     23.693451   17.202263   21.701898 O.3        1 MOL1        -0.3740
      88    C26     25.183150   18.466621   23.155010 C.3        1 MOL1         0.1003
      89    H42     26.209055   18.854562   23.200952 H          1 MOL1         0.0783
      90    O22     24.950504   17.619780   24.288575 O.3        1 MOL1        -0.5519
      91    H43     24.880759   18.240909   25.048215 H          1 MOL1         0.3769
      92    C27     24.218894   19.673158   23.194676 C.3        1 MOL1         0.1053
      93    H44     23.194344   19.284396   23.228696 H          1 MOL1         0.0783
      94    O23     24.489470   20.461007   24.360707 O.3        1 MOL1        -0.5519
      95    H45     23.958992   21.292181   24.280559 H          1 MOL1         0.3769
      96    C28     24.365829   20.547021   21.926500 C.3        1 MOL1         0.1018
      97    H46     25.325469   21.077407   21.983884 H          1 MOL1         0.0783
      98    C29     24.332252   19.699812   20.624968 C.3        1 MOL1         0.1043
      99    H47     23.314937   19.308670   20.486685 H          1 MOL1         0.0783
     100    O24     25.277879   18.603454   20.736571 O.3        1 MOL1        -0.3740
     101    C30     24.708924   20.504595   19.361513 C.3        1 MOL1         0.0138
     102    H48     23.978772   21.310641   19.215816 H          1 MOL1         0.0794
     103    H49     24.641416   19.841566   18.488694 H          1 MOL1         0.0794
     104    O25     26.028845   21.045926   19.471685 O.3        1 MOL1        -0.5486
     105    H50     26.620812   20.283821   19.658992 H          1 MOL1         0.3769
     106    C31     21.438183   13.786921   20.986613 C.3        1 MOL1         0.2972
     107    H51     21.098334   12.784186   20.699530 H          1 MOL1         0.0751
     108    O26     20.336571   14.639309   21.356486 O.3        1 MOL1        -0.3740
     109    C32     22.410912   13.692323   22.189758 C.3        1 MOL1         0.1003
     110    H52     23.251636   13.057227   21.881723 H          1 MOL1         0.0783
     111    O27     21.768544   13.106040   23.330806 O.3        1 MOL1        -0.5519
     112    H53     22.411125   13.225290   24.065769 H          1 MOL1         0.3769
     113    C33     22.977200   15.081819   22.564711 C.3        1 MOL1         0.1053
     114    H54     22.157480   15.681623   22.978220 H          1 MOL1         0.0783
     115    O28     24.008380   14.928166   23.546946 O.3        1 MOL1        -0.5519
     116    H55     24.281028   15.841057   23.815835 H          1 MOL1         0.3769
     117    C34     23.535210   15.822406   21.323684 C.3        1 MOL1         0.1018
     118    H56     24.486680   15.363723   21.023217 H          1 MOL1         0.0783
     119    C35     22.561038   15.782205   20.117633 C.3        1 MOL1         0.1043
     120    H57     21.694700   16.422053   20.332586 H          1 MOL1         0.0783
     121    O29     22.143809   14.412056   19.893195 O.3        1 MOL1        -0.3740
     122    C36     23.230681   16.284147   18.820947 C.3        1 MOL1         0.0138
     123    H58     24.056371   15.610727   18.554954 H          1 MOL1         0.0794
     124    H59     23.656814   17.280331   18.995597 H          1 MOL1         0.0794
     125    O30     22.273933   16.347807   17.761861 O.3        1 MOL1        -0.5486
     126    H60     21.847556   15.464175   17.719766 H          1 MOL1         0.3769
     127    C1      20.899245   17.830536   25.174176 C.3        1 MOL1        -0.1685
     128    H1      20.844519   17.124434   26.013568 H          1 MOL1         0.0832
     129    H2      21.947533   17.824938   24.845899 H          1 MOL1         0.0832
     130    C2      20.524663   19.230707   25.703467 C.3        1 MOL1        -0.1685
     131    H3      19.533690   19.188993   26.175384 H          1 MOL1         0.0832
     132    H4      21.230171   19.497940   26.501710 H          1 MOL1         0.0832
     133    C3      20.539761   20.349743   24.640271 C.3        1 MOL1        -0.1685
     134    H5      21.517652   20.403187   24.150584 H          1 MOL1         0.0832
     135    H6      20.413609   21.306963   25.164276 H          1 MOL1         0.0832
     136    C4      19.403177   20.222207   23.597499 C.3        1 MOL1        -0.1761
     137    H7      18.486998   19.874683   24.091636 H          1 MOL1         0.0832
     138    H8      19.167114   21.223092   23.225234 H          1 MOL1         0.0832
     139    C5      19.696795   19.327611   22.371785 C.3        1 MOL1         0.1218
     140    H9      18.738933   19.162495   21.859801 H          1 MOL1         0.0789
     141    C6      20.315669   17.941624   22.662950 C.3        1 MOL1        -0.1761
     142    H10     19.966490   17.262017   21.876663 H          1 MOL1         0.0832
     143    H11     21.402724   17.991067   22.546219 H          1 MOL1         0.0832
     144    C7      19.990388   17.309836   24.038008 C.3        1 MOL1        -0.1685
     145    H12     18.928797   17.436418   24.290318 H          1 MOL1         0.0832
     146    H13     20.158831   16.228390   23.962633 H          1 MOL1         0.0832
     147    O1      20.559805   20.027007   21.484193 O.3        1 MOL1        -0.5509
     148    H14     21.333796   20.312390   22.010010 H          1 MOL1         0.3779
@<TRIPOS>BOND
    1     1     2    1
    2     1     3    1
    3     1     4    1
    4     4     5    1
    5     4     6    1
    6     6     7    1
    7     4     8    1
    8     8     9    1
    9     8    10    1
   10    10    11    1
   11     8    12    1
   12    12    13    1
   13    12    14    1
   14    14    15    1
   15     1    16    1
   16    14    16    1
   17    14    17    1
   18    17    18    1
   19    17    19    1
   20    17    20    1
   21    20    21    1
   22    22    23    1
   23    22    24    1
   24    22    25    1
   25    25    26    1
   26    25    27    1
   27    27    28    1
   28    25    29    1
   29    29    30    1
   30    29    31    1
   31    31    32    1
   32     3    33    1
   33    29    33    1
   34    33    34    1
   35    33    35    1
   36    35    36    1
   37    22    37    1
   38    35    37    1
   39    35    38    1
   40    38    39    1
   41    38    40    1
   42    38    41    1
   43    41    42    1
   44    43    44    1
   45    43    45    1
   46    43    46    1
   47    46    47    1
   48    46    48    1
   49    48    49    1
   50    46    50    1
   51    50    51    1
   52    50    52    1
   53    52    53    1
   54    24    54    1
   55    50    54    1
   56    54    55    1
   57    54    56    1
   58    56    57    1
   59    43    58    1
   60    56    58    1
   61    56    59    1
   62    59    60    1
   63    59    61    1
   64    59    62    1
   65    62    63    1
   66    64    65    1
   67    64    66    1
   68    64    67    1
   69    67    68    1
   70    67    69    1
   71    69    70    1
   72    67    71    1
   73    71    72    1
   74    71    73    1
   75    73    74    1
   76    45    75    1
   77    71    75    1
   78    75    76    1
   79    75    77    1
   80    77    78    1
   81    64    79    1
   82    77    79    1
   83    77    80    1
   84    80    81    1
   85    80    82    1
   86    80    83    1
   87    83    84    1
   88    85    86    1
   89    85    87    1
   90    85    88    1
   91    88    89    1
   92    88    90    1
   93    90    91    1
   94    88    92    1
   95    92    93    1
   96    92    94    1
   97    94    95    1
   98    66    96    1
   99    92    96    1
  100    96    97    1
  101    96    98    1
  102    98    99    1
  103    85   100    1
  104    98   100    1
  105    98   101    1
  106   101   102    1
  107   101   103    1
  108   101   104    1
  109   104   105    1
  110   106   107    1
  111    12   108    1
  112   106   108    1
  113   106   109    1
  114   109   110    1
  115   109   111    1
  116   111   112    1
  117   109   113    1
  118   113   114    1
  119   113   115    1
  120   115   116    1
  121    87   117    1
  122   113   117    1
  123   117   118    1
  124   117   119    1
  125   119   120    1
  126   106   121    1
  127   119   121    1
  128   119   122    1
  129   122   123    1
  130   122   124    1
  131   122   125    1
  132   125   126    1
  133   127   128    1
  134   127   129    1
  135   127   130    1
  136   130   131    1
  137   130   132    1
  138   130   133    1
  139   133   134    1
  140   133   135    1
  141   133   136    1
  142   136   137    1
  143   136   138    1
  144   136   139    1
  145   139   140    1
  146   139   141    1
  147   141   142    1
  148   141   143    1
  149   127   144    1
  150   141   144    1
  151   144   145    1
  152   144   146    1
  153   139   147    1
  154   147   148    1
@<TRIPOS>SUBSTRUCTURE
       1 MOL1            1 RESIDUE      1      MOL     
       2 MOL1          148 RESIDUE      1      MOL     
@<SCITEGIC>MOL_PROPERTY
VM2 Rank
SciTegic.value.IntegerValue
3

@<SCITEGIC>MOL_PROPERTY
Conf_Id
SciTegic.value.IntegerValue
26742

@<SCITEGIC>MOL_PROPERTY
Probability
SciTegic.value.DoubleValue
2.07

@<SCITEGIC>MOL_PROPERTY
Sum Probability
SciTegic.value.DoubleValue
6.63

@<SCITEGIC>MOL_PROPERTY
Delta G
SciTegic.value.DoubleValue
0.092

@<SCITEGIC>MOL_PROPERTY
G
SciTegic.value.DoubleValue
563.103

@<SCITEGIC>MOL_PROPERTY
E
SciTegic.value.DoubleValue
368.255

@<SCITEGIC>MOL_PROPERTY
-TS
SciTegic.value.DoubleValue
194.848

@<SCITEGIC>MOL_PROPERTY
U+W
SciTegic.value.DoubleValue
237.696

@<SCITEGIC>MOL_PROPERTY
U
SciTegic.value.DoubleValue
268.843

@<SCITEGIC>MOL_PROPERTY
W
SciTegic.value.DoubleValue
-31.148

@<SCITEGIC>MOL_PROPERTY
W(PB)
SciTegic.value.DoubleValue
-37.300

@<SCITEGIC>MOL_PROPERTY
W(SA)
SciTegic.value.DoubleValue
6.152

@<SCITEGIC>MOL_PROPERTY
Valence
SciTegic.value.DoubleValue
155.458

@<SCITEGIC>MOL_PROPERTY
Coulomb
SciTegic.value.DoubleValue
140.877

@<SCITEGIC>MOL_PROPERTY
VdW
SciTegic.value.DoubleValue
-27.492

@<SCITEGIC>MOL_PROPERTY
VdW6
SciTegic.value.DoubleValue
-177.011

@<SCITEGIC>MOL_PROPERTY
VdW12
SciTegic.value.DoubleValue
149.519

@<SCITEGIC>MOL_PROPERTY
Bond
SciTegic.value.DoubleValue
4.104

@<SCITEGIC>MOL_PROPERTY
Angle
SciTegic.value.DoubleValue
11.623

@<SCITEGIC>MOL_PROPERTY
Pdih
SciTegic.value.DoubleValue
139.731

@<SCITEGIC>MOL_PROPERTY
Idih
SciTegic.value.DoubleValue
0.000

@<SCITEGIC>MOL_PROPERTY
Tether
SciTegic.value.DoubleValue
0.000

@<TRIPOS>MOLECULE
CD_guest-5_vm2_rndm.mol2 : vm2 host+ligand conformer 4
         148         154           2
SMALL
USER_CHARGES
 
@<TRIPOS>ATOM
       1    C1      16.177953   15.034029   21.297347 C.3        1 MOL1         0.2972
       2    H1      15.095590   14.884691   21.198109 H          1 MOL1         0.0751
       3    O1      16.506362   16.412822   21.564653 O.3        1 MOL1        -0.3740
       4    C2      16.742657   14.159765   22.445257 C.3        1 MOL1         0.1003
       5    H2      16.528601   13.111363   22.199985 H          1 MOL1         0.0783
       6    O2      16.132725   14.489576   23.700429 O.3        1 MOL1        -0.5519
       7    H3      16.652329   13.987553   24.368173 H          1 MOL1         0.3769
       8    C3      18.274989   14.324497   22.553284 C.3        1 MOL1         0.1053
       9    H4      18.472882   15.351088   22.882504 H          1 MOL1         0.0783
      10    O3      18.798675   13.391686   23.506724 O.3        1 MOL1        -0.5519
      11    H5      19.784452   13.433336   23.432923 H          1 MOL1         0.3769
      12    C4      18.974234   14.118212   21.188606 C.3        1 MOL1         0.1018
      13    H6      18.986645   13.043900   20.962320 H          1 MOL1         0.0783
      14    C5      18.273822   14.890403   20.036087 C.3        1 MOL1         0.1043
      15    H7      18.471098   15.963403   20.163114 H          1 MOL1         0.0783
      16    O4      16.846053   14.644495   20.079241 O.3        1 MOL1        -0.3740
      17    C6      18.770827   14.482468   18.631861 C.3        1 MOL1         0.0138
      18    H8      19.832853   14.739221   18.538848 H          1 MOL1         0.0794
      19    H9      18.226766   15.070716   17.880813 H          1 MOL1         0.0794
      20    O5      18.578221   13.083571   18.401533 O.3        1 MOL1        -0.5486
      21    H10     17.620116   12.912982   18.540111 H          1 MOL1         0.3769
      22    C7      14.851240   20.204487   21.726015 C.3        1 MOL1         0.2972
      23    H11     14.183107   21.072098   21.797154 H          1 MOL1         0.0751
      24    O6      16.194973   20.594939   21.378058 O.3        1 MOL1        -0.3740
      25    C8      14.875942   19.444223   23.074379 C.3        1 MOL1         0.1003
      26    H12     13.849281   19.114859   23.280888 H          1 MOL1         0.0783
      27    O7      15.317832   20.293797   24.142366 O.3        1 MOL1        -0.5519
      28    H13     15.474908   19.682278   24.896303 H          1 MOL1         0.3769
      29    C9      15.766294   18.183113   22.984243 C.3        1 MOL1         0.1053
      30    H14     16.809862   18.504969   22.879317 H          1 MOL1         0.0783
      31    O8      15.613046   17.406824   24.178177 O.3        1 MOL1        -0.5519
      32    H15     15.967903   16.505505   23.980845 H          1 MOL1         0.3769
      33    C10     15.400525   17.315656   21.753314 C.3        1 MOL1         0.1018
      34    H16     14.464458   16.782441   21.967491 H          1 MOL1         0.0783
      35    C11     15.241478   18.152127   20.452962 C.3        1 MOL1         0.1043
      36    H17     16.235227   18.487945   20.127998 H          1 MOL1         0.0783
      37    O9      14.380827   19.289355   20.715697 O.3        1 MOL1        -0.3740
      38    C12     14.600338   17.353535   19.298697 C.3        1 MOL1         0.0138
      39    H18     13.604642   17.006517   19.605661 H          1 MOL1         0.0794
      40    H19     15.212808   16.469741   19.079974 H          1 MOL1         0.0794
      41    O10     14.507348   18.175032   18.133247 O.3        1 MOL1        -0.5486
      42    H20     14.066198   19.004835   18.422912 H          1 MOL1         0.3769
      43    C13     18.406322   24.049865   20.716083 C.3        1 MOL1         0.2972
      44    H21     18.780359   25.029166   20.391418 H          1 MOL1         0.0751
      45    O11     19.434335   23.265043   21.347280 O.3        1 MOL1        -0.3740
      46    C14     17.247539   24.215237   21.732502 C.3        1 MOL1         0.1003
      47    H22     16.447469   24.777731   21.234087 H          1 MOL1         0.0783
      48    O12     17.681754   24.932291   22.897698 O.3        1 MOL1        -0.5519
      49    H23     16.929239   24.865422   23.527079 H          1 MOL1         0.3769
      50    C15     16.678794   22.837614   22.151628 C.3        1 MOL1         0.1053
      51    H24     17.447932   22.326578   22.739278 H          1 MOL1         0.0783
      52    O13     15.513830   23.023090   22.964618 O.3        1 MOL1        -0.5519
      53    H25     15.380051   22.168331   23.444739 H          1 MOL1         0.3769
      54    C16     16.354153   21.950494   20.918405 C.3        1 MOL1         0.1018
      55    H26     15.442990   22.318716   20.428109 H          1 MOL1         0.0783
      56    C17     17.502288   21.938231   19.875026 C.3        1 MOL1         0.1043
      57    H27     18.349390   21.363448   20.275065 H          1 MOL1         0.0783
      58    O14     17.896675   23.303664   19.590927 O.3        1 MOL1        -0.3740
      59    C18     17.062774   21.297877   18.541211 C.3        1 MOL1         0.0138
      60    H28     16.218689   21.865711   18.127726 H          1 MOL1         0.0794
      61    H29     16.716449   20.272633   18.725763 H          1 MOL1         0.0794
      62    O15     18.155156   21.286884   17.620154 O.3        1 MOL1        -0.5486
      63    H30     18.503525   22.205266   17.607698 H          1 MOL1         0.3769
      64    C19     23.518872   22.887362   21.802431 C.3        1 MOL1         0.2972
      65    H31     24.600316   23.056736   21.875440 H          1 MOL1         0.0751
      66    O16     23.190842   21.481661   21.890935 O.3        1 MOL1        -0.3740
      67    C20     22.795699   23.642344   22.945565 C.3        1 MOL1         0.1003
      68    H32     23.043224   24.707180   22.846453 H          1 MOL1         0.0783
      69    O17     23.224687   23.171429   24.230817 O.3        1 MOL1        -0.5519
      70    H33     22.605116   23.591471   24.868496 H          1 MOL1         0.3769
      71    C21     21.263943   23.494808   22.822715 C.3        1 MOL1         0.1053
      72    H34     21.017109   22.447305   23.020579 H          1 MOL1         0.0783
      73    O18     20.610132   24.340064   23.777502 O.3        1 MOL1        -0.5519
      74    H35     19.654827   24.358574   23.525090 H          1 MOL1         0.3769
      75    C22     20.753848   23.833226   21.403877 C.3        1 MOL1         0.1018
      76    H36     20.739225   24.924913   21.287059 H          1 MOL1         0.0783
      77    C23     21.614154   23.182024   20.284205 C.3        1 MOL1         0.1043
      78    H37     21.408533   22.104512   20.264608 H          1 MOL1         0.0783
      79    O19     23.020411   23.404787   20.550716 O.3        1 MOL1        -0.3740
      80    C24     21.318512   23.741127   18.875090 C.3        1 MOL1         0.0138
      81    H38     20.285627   23.495913   18.599556 H          1 MOL1         0.0794
      82    H39     21.975367   23.238817   18.152462 H          1 MOL1         0.0794
      83    O20     21.520463   25.156718   18.827980 O.3        1 MOL1        -0.5486
      84    H40     22.446672   25.310017   19.119795 H          1 MOL1         0.3769
      85    C25     25.001280   17.718842   21.708374 C.3        1 MOL1         0.2972
      86    H41     25.729642   16.900097   21.653303 H          1 MOL1         0.0751
      87    O21     23.648349   17.234572   21.620155 O.3        1 MOL1        -0.3740
      88    C26     25.175145   18.488694   23.042587 C.3        1 MOL1         0.1003
      89    H42     26.200735   18.879604   23.063458 H          1 MOL1         0.0783
      90    O22     24.977377   17.628616   24.172894 O.3        1 MOL1        -0.5519
      91    H43     24.927300   18.240942   24.941141 H          1 MOL1         0.3769
      92    C27     24.208486   19.691288   23.122148 C.3        1 MOL1         0.1053
      93    H44     23.186453   19.298617   23.180847 H          1 MOL1         0.0783
      94    O23     24.508439   20.468946   24.287917 O.3        1 MOL1        -0.5519
      95    H45     23.969478   21.296668   24.232386 H          1 MOL1         0.3769
      96    C28     24.316693   20.578504   21.859503 C.3        1 MOL1         0.1018
      97    H46     25.275538   21.112239   21.894971 H          1 MOL1         0.0783
      98    C29     24.248062   19.745008   20.550514 C.3        1 MOL1         0.1043
      99    H47     23.228114   19.352596   20.437602 H          1 MOL1         0.0783
     100    O24     25.199319   18.650312   20.623255 O.3        1 MOL1        -0.3740
     101    C30     24.586514   20.563468   19.285017 C.3        1 MOL1         0.0138
     102    H48     23.849866   21.368093   19.167460 H          1 MOL1         0.0794
     103    H49     24.496873   19.908743   18.407951 H          1 MOL1         0.0794
     104    O25     25.907231   21.108385   19.363476 O.3        1 MOL1        -0.5486
     105    H50     26.506758   20.346610   19.526445 H          1 MOL1         0.3769
     106    C31     21.391612   13.815843   20.922718 C.3        1 MOL1         0.2972
     107    H51     21.045834   12.817401   20.627038 H          1 MOL1         0.0751
     108    O26     20.300479   14.656997   21.345723 O.3        1 MOL1        -0.3740
     109    C32     22.401496   13.707981   22.094085 C.3        1 MOL1         0.1003
     110    H52     23.235824   13.082576   21.750906 H          1 MOL1         0.0783
     111    O27     21.797563   13.101947   23.246048 O.3        1 MOL1        -0.5519
     112    H53     22.462803   13.212007   23.961969 H          1 MOL1         0.3769
     113    C33     22.970605   15.096140   22.472652 C.3        1 MOL1         0.1053
     114    H54     22.159984   15.683942   22.920267 H          1 MOL1         0.0783
     115    O28     24.032631   14.935928   23.420478 O.3        1 MOL1        -0.5519
     116    H55     24.306291   15.846871   23.694887 H          1 MOL1         0.3769
     117    C34     23.485090   15.859920   21.226605 C.3        1 MOL1         0.1018
     118    H56     24.428879   15.411192   20.889178 H          1 MOL1         0.0783
     119    C35     22.473804   15.831486   20.051649 C.3        1 MOL1         0.1043
     120    H57     21.608706   16.459485   20.303076 H          1 MOL1         0.0783
     121    O29     22.062649   14.461761   19.819919 O.3        1 MOL1        -0.3740
     122    C36     23.095890   16.357842   18.741370 C.3        1 MOL1         0.0138
     123    H58     23.959686   15.734785   18.473679 H          1 MOL1         0.0794
     124    H59     23.459010   17.381563   18.898737 H          1 MOL1         0.0794
     125    O30     22.123744   16.341069   17.694367 O.3        1 MOL1        -0.5486
     126    H60     21.780602   15.421069   17.660250 H          1 MOL1         0.3769
     127    C1      20.971280   17.823268   25.184217 C.3        1 MOL1        -0.1685
     128    H1      20.952749   17.108653   26.017967 H          1 MOL1         0.0832
     129    H2      22.006599   17.828397   24.817217 H          1 MOL1         0.0832
     130    C2      20.606755   19.215360   25.741340 C.3        1 MOL1        -0.1685
     131    H3      19.633663   19.161805   26.247961 H          1 MOL1         0.0832
     132    H4      21.338652   19.479366   26.516569 H          1 MOL1         0.0832
     133    C3      20.576014   20.345507   24.690320 C.3        1 MOL1        -0.1685
     134    H5      21.536856   20.413586   24.169551 H          1 MOL1         0.0832
     135    H6      20.458221   21.296123   25.228101 H          1 MOL1         0.0832
     136    C4      19.407129   20.217438   23.683860 C.3        1 MOL1        -0.1761
     137    H7      18.510480   19.854951   24.202598 H          1 MOL1         0.0832
     138    H8      19.149366   21.219924   23.330456 H          1 MOL1         0.0832
     139    C5      19.671051   19.339720   22.439427 C.3        1 MOL1         0.1218
     140    H9      18.701075   19.181877   21.948229 H          1 MOL1         0.0789
     141    C6      20.296910   17.949615   22.696124 C.3        1 MOL1        -0.1761
     142    H10     19.916486   17.276996   21.918196 H          1 MOL1         0.0832
     143    H11     21.378810   17.997398   22.537973 H          1 MOL1         0.0832
     144    C7      20.024162   17.306846   24.077646 C.3        1 MOL1        -0.1685
     145    H12     18.971860   17.426967   24.368991 H          1 MOL1         0.0832
     146    H13     20.193665   16.226512   23.988200 H          1 MOL1         0.0832
     147    O1      20.512332   20.051681   21.541481 O.3        1 MOL1        -0.5509
     148    H14     21.297515   20.333409   22.052017 H          1 MOL1         0.3779
@<TRIPOS>BOND
    1     1     2    1
    2     1     3    1
    3     1     4    1
    4     4     5    1
    5     4     6    1
    6     6     7    1
    7     4     8    1
    8     8     9    1
    9     8    10    1
   10    10    11    1
   11     8    12    1
   12    12    13    1
   13    12    14    1
   14    14    15    1
   15     1    16    1
   16    14    16    1
   17    14    17    1
   18    17    18    1
   19    17    19    1
   20    17    20    1
   21    20    21    1
   22    22    23    1
   23    22    24    1
   24    22    25    1
   25    25    26    1
   26    25    27    1
   27    27    28    1
   28    25    29    1
   29    29    30    1
   30    29    31    1
   31    31    32    1
   32     3    33    1
   33    29    33    1
   34    33    34    1
   35    33    35    1
   36    35    36    1
   37    22    37    1
   38    35    37    1
   39    35    38    1
   40    38    39    1
   41    38    40    1
   42    38    41    1
   43    41    42    1
   44    43    44    1
   45    43    45    1
   46    43    46    1
   47    46    47    1
   48    46    48    1
   49    48    49    1
   50    46    50    1
   51    50    51    1
   52    50    52    1
   53    52    53    1
   54    24    54    1
   55    50    54    1
   56    54    55    1
   57    54    56    1
   58    56    57    1
   59    43    58    1
   60    56    58    1
   61    56    59    1
   62    59    60    1
   63    59    61    1
   64    59    62    1
   65    62    63    1
   66    64    65    1
   67    64    66    1
   68    64    67    1
   69    67    68    1
   70    67    69    1
   71    69    70    1
   72    67    71    1
   73    71    72    1
   74    71    73    1
   75    73    74    1
   76    45    75    1
   77    71    75    1
   78    75    76    1
   79    75    77    1
   80    77    78    1
   81    64    79    1
   82    77    79    1
   83    77    80    1
   84    80    81    1
   85    80    82    1
   86    80    83    1
   87    83    84    1
   88    85    86    1
   89    85    87    1
   90    85    88    1
   91    88    89    1
   92    88    90    1
   93    90    91    1
   94    88    92    1
   95    92    93    1
   96    92    94    1
   97    94    95    1
   98    66    96    1
   99    92    96    1
  100    96    97    1
  101    96    98    1
  102    98    99    1
  103    85   100    1
  104    98   100    1
  105    98   101    1
  106   101   102    1
  107   101   103    1
  108   101   104    1
  109   104   105    1
  110   106   107    1
  111    12   108    1
  112   106   108    1
  113   106   109    1
  114   109   110    1
  115   109   111    1
  116   111   112    1
  117   109   113    1
  118   113   114    1
  119   113   115    1
  120   115   116    1
  121    87   117    1
  122   113   117    1
  123   117   118    1
  124   117   119    1
  125   119   120    1
  126   106   121    1
  127   119   121    1
  128   119   122    1
  129   122   123    1
  130   122   124    1
  131   122   125    1
  132   125   126    1
  133   127   128    1
  134   127   129    1
  135   127   130    1
  136   130   131    1
  137   130   132    1
  138   130   133    1
  139   133   134    1
  140   133   135    1
  141   133   136    1
  142   136   137    1
  143   136   138    1
  144   136   139    1
  145   139   140    1
  146   139   141    1
  147   141   142    1
  148   141   143    1
  149   127   144    1
  150   141   144    1
  151   144   145    1
  152   144   146    1
  153   139   147    1
  154   147   148    1
@<TRIPOS>SUBSTRUCTURE
       1 MOL1            1 RESIDUE      1      MOL     
       2 MOL1          148 RESIDUE      1      MOL     
@<SCITEGIC>MOL_PROPERTY
VM2 Rank
SciTegic.value.IntegerValue
4

@<SCITEGIC>MOL_PROPERTY
Conf_Id
SciTegic.value.IntegerValue
18680

@<SCITEGIC>MOL_PROPERTY
Probability
SciTegic.value.DoubleValue
1.83

@<SCITEGIC>MOL_PROPERTY
Sum Probability
SciTegic.value.DoubleValue
8.46

@<SCITEGIC>MOL_PROPERTY
Delta G
SciTegic.value.DoubleValue
0.166

@<SCITEGIC>MOL_PROPERTY
G
SciTegic.value.DoubleValue
563.177

@<SCITEGIC>MOL_PROPERTY
E
SciTegic.value.DoubleValue
368.318

@<SCITEGIC>MOL_PROPERTY
-TS
SciTegic.value.DoubleValue
194.859

@<SCITEGIC>MOL_PROPERTY
U+W
SciTegic.value.DoubleValue
237.759

@<SCITEGIC>MOL_PROPERTY
U
SciTegic.value.DoubleValue
270.043

@<SCITEGIC>MOL_PROPERTY
W
SciTegic.value.DoubleValue
-32.284

@<SCITEGIC>MOL_PROPERTY
W(PB)
SciTegic.value.DoubleValue
-38.412

@<SCITEGIC>MOL_PROPERTY
W(SA)
SciTegic.value.DoubleValue
6.128

@<SCITEGIC>MOL_PROPERTY
Valence
SciTegic.value.DoubleValue
156.045

@<SCITEGIC>MOL_PROPERTY
Coulomb
SciTegic.value.DoubleValue
141.526

@<SCITEGIC>MOL_PROPERTY
VdW
SciTegic.value.DoubleValue
-27.529

@<SCITEGIC>MOL_PROPERTY
VdW6
SciTegic.value.DoubleValue
-176.367

@<SCITEGIC>MOL_PROPERTY
VdW12
SciTegic.value.DoubleValue
148.838

@<SCITEGIC>MOL_PROPERTY
Bond
SciTegic.value.DoubleValue
4.076

@<SCITEGIC>MOL_PROPERTY
Angle
SciTegic.value.DoubleValue
11.436

@<SCITEGIC>MOL_PROPERTY
Pdih
SciTegic.value.DoubleValue
140.533

@<SCITEGIC>MOL_PROPERTY
Idih
SciTegic.value.DoubleValue
0.000

@<SCITEGIC>MOL_PROPERTY
Tether
SciTegic.value.DoubleValue
0.000

@<TRIPOS>MOLECULE
CD_guest-5_vm2_rndm.mol2 : vm2 host+ligand conformer 5
         148         154           2
SMALL
USER_CHARGES
 
@<TRIPOS>ATOM
       1    C1      16.195560   15.137231   21.055104 C.3        1 MOL1         0.2972
       2    H1      15.118669   15.021404   20.876763 H          1 MOL1         0.0751
       3    O1      16.534854   16.493347   21.409523 O.3        1 MOL1        -0.3740
       4    C2      16.665772   14.198763   22.195855 C.3        1 MOL1         0.1003
       5    H2      16.442386   13.167950   21.891596 H          1 MOL1         0.0783
       6    O2      15.988291   14.491444   23.425827 O.3        1 MOL1        -0.5519
       7    H3      16.449134   13.943073   24.100070 H          1 MOL1         0.3769
       8    C3      18.192125   14.319226   22.405602 C.3        1 MOL1         0.1053
       9    H4      18.390349   15.325757   22.791242 H          1 MOL1         0.0783
      10    O3      18.636084   13.336147   23.349122 O.3        1 MOL1        -0.5519
      11    H5      19.623294   13.397017   23.378973 H          1 MOL1         0.3769
      12    C4      18.971525   14.154302   21.079017 C.3        1 MOL1         0.1018
      13    H6      18.970971   13.091939   20.801818 H          1 MOL1         0.0783
      14    C5      18.365546   14.994636   19.921636 C.3        1 MOL1         0.1043
      15    H7      18.581684   16.055152   20.107424 H          1 MOL1         0.0783
      16    O4      16.932610   14.788390   19.864436 O.3        1 MOL1        -0.3740
      17    C6      18.937976   14.627176   18.534578 C.3        1 MOL1         0.0138
      18    H8      20.015792   14.831451   18.521973 H          1 MOL1         0.0794
      19    H9      18.474229   15.275703   17.779451 H          1 MOL1         0.0794
      20    O5      18.691656   13.252345   18.224228 O.3        1 MOL1        -0.5486
      21    H10     17.720536   13.124042   18.307538 H          1 MOL1         0.3769
      22    C7      14.881154   20.271470   21.655671 C.3        1 MOL1         0.2972
      23    H11     14.223472   21.145090   21.746055 H          1 MOL1         0.0751
      24    O6      16.226746   20.652463   21.300432 O.3        1 MOL1        -0.3740
      25    C8      14.915752   19.492315   22.993243 C.3        1 MOL1         0.1003
      26    H12     13.891312   19.158059   23.202926 H          1 MOL1         0.0783
      27    O7      15.365030   20.327529   24.069539 O.3        1 MOL1        -0.5519
      28    H13     15.533878   19.704970   24.811805 H          1 MOL1         0.3769
      29    C9      15.808089   18.234471   22.875957 C.3        1 MOL1         0.1053
      30    H14     16.848474   18.559612   22.757026 H          1 MOL1         0.0783
      31    O8      15.678256   17.442130   24.062228 O.3        1 MOL1        -0.5519
      32    H15     15.981696   16.531204   23.828986 H          1 MOL1         0.3769
      33    C10     15.424447   17.380106   21.642464 C.3        1 MOL1         0.1018
      34    H16     14.503862   16.829580   21.878834 H          1 MOL1         0.0783
      35    C11     15.221083   18.228303   20.354363 C.3        1 MOL1         0.1043
      36    H17     16.205779   18.567433   20.007575 H          1 MOL1         0.0783
      37    O9      14.383552   19.374886   20.641277 O.3        1 MOL1        -0.3740
      38    C12     14.558684   17.449477   19.195691 C.3        1 MOL1         0.0138
      39    H18     15.233001   16.647770   18.867941 H          1 MOL1         0.0794
      40    H19     14.426444   18.130474   18.344167 H          1 MOL1         0.0794
      41    O10     13.297990   16.902662   19.593963 O.3        1 MOL1        -0.5486
      42    H20     12.748936   17.663371   19.887901 H          1 MOL1         0.3769
      43    C13     18.465673   24.116335   20.735863 C.3        1 MOL1         0.2972
      44    H21     18.845252   25.099592   20.430030 H          1 MOL1         0.0751
      45    O11     19.478175   23.333163   21.392508 O.3        1 MOL1        -0.3740
      46    C14     17.276383   24.271163   21.719087 C.3        1 MOL1         0.1003
      47    H22     16.490558   24.836969   21.202096 H          1 MOL1         0.0783
      48    O12     17.677230   24.979879   22.901413 O.3        1 MOL1        -0.5519
      49    H23     16.909730   24.902480   23.511142 H          1 MOL1         0.3769
      50    C15     16.695359   22.890707   22.113103 C.3        1 MOL1         0.1053
      51    H24     17.449895   22.373646   22.714370 H          1 MOL1         0.0783
      52    O13     15.514660   23.072068   22.904134 O.3        1 MOL1        -0.5519
      53    H25     15.379819   22.218617   23.385959 H          1 MOL1         0.3769
      54    C16     16.398572   22.015280   20.863689 C.3        1 MOL1         0.1018
      55    H26     15.500555   22.388727   20.353771 H          1 MOL1         0.0783
      56    C17     17.580289   22.012716   19.857010 C.3        1 MOL1         0.1043
      57    H27     18.411547   21.441580   20.292564 H          1 MOL1         0.0783
      58    O14     17.998305   23.374288   19.590360 O.3        1 MOL1        -0.3740
      59    C18     17.220883   21.363264   18.502356 C.3        1 MOL1         0.0138
      60    H28     16.916007   20.322809   18.671946 H          1 MOL1         0.0794
      61    H29     18.120325   21.343896   17.872679 H          1 MOL1         0.0794
      62    O15     16.172883   22.083797   17.847177 O.3        1 MOL1        -0.5486
      63    H30     16.470476   23.020150   17.810879 H          1 MOL1         0.3769
      64    C19     23.545393   22.878304   21.847342 C.3        1 MOL1         0.2972
      65    H31     24.629791   23.019745   21.934420 H          1 MOL1         0.0751
      66    O16     23.184073   21.477402   21.890492 O.3        1 MOL1        -0.3740
      67    C20     22.834942   23.621694   23.005150 C.3        1 MOL1         0.1003
      68    H32     23.104664   24.683253   22.932187 H          1 MOL1         0.0783
      69    O17     23.249369   23.111114   24.279846 O.3        1 MOL1        -0.5519
      70    H33     22.633056   23.523849   24.925361 H          1 MOL1         0.3769
      71    C21     21.302394   23.507654   22.871450 C.3        1 MOL1         0.1053
      72    H34     21.039298   22.459742   23.039527 H          1 MOL1         0.0783
      73    O18     20.655796   24.336256   23.845480 O.3        1 MOL1        -0.5519
      74    H35     19.701324   24.365830   23.593329 H          1 MOL1         0.3769
      75    C22     20.801920   23.890612   21.460776 C.3        1 MOL1         0.1018
      76    H36     20.793693   24.985360   21.376255 H          1 MOL1         0.0783
      77    C23     21.660091   23.265185   20.323795 C.3        1 MOL1         0.1043
      78    H37     21.431194   22.194153   20.261414 H          1 MOL1         0.0783
      79    O19     23.069300   23.444663   20.608548 O.3        1 MOL1        -0.3740
      80    C24     21.393075   23.884858   18.934018 C.3        1 MOL1         0.0138
      81    H38     20.360518   23.669623   18.632851 H          1 MOL1         0.0794
      82    H39     22.051835   23.400307   18.201043 H          1 MOL1         0.0794
      83    O20     21.621297   25.297207   18.946226 O.3        1 MOL1        -0.5486
      84    H40     22.547337   25.421316   19.252223 H          1 MOL1         0.3769
      85    C25     25.001714   17.702430   21.614562 C.3        1 MOL1         0.2972
      86    H41     25.748839   16.906293   21.506737 H          1 MOL1         0.0751
      87    O21     23.662813   17.174727   21.647491 O.3        1 MOL1        -0.3740
      88    C26     25.256263   18.490860   22.926154 C.3        1 MOL1         0.1003
      89    H42     26.275782   18.894145   22.871492 H          1 MOL1         0.0783
      90    O22     25.148417   17.640643   24.076458 O.3        1 MOL1        -0.5519
      91    H43     25.153560   18.259633   24.840955 H          1 MOL1         0.3769
      92    C27     24.282313   19.684141   23.063926 C.3        1 MOL1         0.1053
      93    H44     23.271398   19.281934   23.203312 H          1 MOL1         0.0783
      94    O23     24.658685   20.479195   24.195281 O.3        1 MOL1        -0.5519
      95    H45     24.080717   21.282315   24.192100 H          1 MOL1         0.3769
      96    C28     24.290425   20.554822   21.784887 C.3        1 MOL1         0.1018
      97    H46     25.255580   21.075032   21.726328 H          1 MOL1         0.0783
      98    C29     24.108477   19.698586   20.503407 C.3        1 MOL1         0.1043
      99    H47     23.091113   19.284808   20.493750 H          1 MOL1         0.0783
     100    O24     25.084593   18.625637   20.507436 O.3        1 MOL1        -0.3740
     101    C30     24.313896   20.499697   19.198814 C.3        1 MOL1         0.0138
     102    H48     23.565564   21.300209   19.144848 H          1 MOL1         0.0794
     103    H49     24.140662   19.831676   18.344713 H          1 MOL1         0.0794
     104    O25     25.633004   21.050261   19.136434 O.3        1 MOL1        -0.5486
     105    H50     26.248370   20.293676   19.260029 H          1 MOL1         0.3769
     106    C31     21.388934   13.761642   21.025876 C.3        1 MOL1         0.2972
     107    H51     21.033758   12.753465   20.778654 H          1 MOL1         0.0751
     108    O26     20.298554   14.649828   21.340752 O.3        1 MOL1        -0.3740
     109    C32     22.339790   13.702964   22.248729 C.3        1 MOL1         0.1003
     110    H52     23.174746   13.041526   21.983496 H          1 MOL1         0.0783
     111    O27     21.665986   13.177293   23.401632 O.3        1 MOL1        -0.5519
     112    H53     22.293349   13.325227   24.144393 H          1 MOL1         0.3769
     113    C33     22.922932   15.098230   22.574553 C.3        1 MOL1         0.1053
     114    H54     22.106285   15.727543   22.945721 H          1 MOL1         0.0783
     115    O28     23.933296   14.974961   23.582673 O.3        1 MOL1        -0.5519
     116    H55     24.271800   15.888654   23.757315 H          1 MOL1         0.3769
     117    C34     23.516698   15.780249   21.317771 C.3        1 MOL1         0.1018
     118    H56     24.476699   15.306329   21.074329 H          1 MOL1         0.0783
     119    C35     22.575198   15.688151   20.087421 C.3        1 MOL1         0.1043
     120    H57     21.714632   16.349328   20.254090 H          1 MOL1         0.0783
     121    O29     22.123949   14.321730   19.917769 O.3        1 MOL1        -0.3740
     122    C36     23.256955   16.117949   18.769633 C.3        1 MOL1         0.0138
     123    H58     23.584556   17.161859   18.856608 H          1 MOL1         0.0794
     124    H59     22.517498   16.072289   17.959150 H          1 MOL1         0.0794
     125    O30     24.372262   15.273576   18.469761 O.3        1 MOL1        -0.5486
     126    H60     24.026867   14.353146   18.483825 H          1 MOL1         0.3769
     127    C1      20.836927   17.799279   25.105141 C.3        1 MOL1        -0.1685
     128    H1      20.743603   17.086695   25.935624 H          1 MOL1         0.0832
     129    H2      21.893651   17.773686   24.805283 H          1 MOL1         0.0832
     130    C2      20.480030   19.203311   25.636694 C.3        1 MOL1        -0.1685
     131    H3      19.481263   19.177348   26.093098 H          1 MOL1         0.0832
     132    H4      21.177604   19.452884   26.447504 H          1 MOL1         0.0832
     133    C3      20.532033   20.327500   24.579672 C.3        1 MOL1        -0.1685
     134    H5      21.514985   20.357482   24.096319 H          1 MOL1         0.0832
     135    H6      20.426352   21.284341   25.108869 H          1 MOL1         0.0832
     136    C4      19.398194   20.233468   23.529380 C.3        1 MOL1        -0.1761
     137    H7      18.474145   19.896006   24.015707 H          1 MOL1         0.0832
     138    H8      19.178714   21.241096   23.166101 H          1 MOL1         0.0832
     139    C5      19.683128   19.345397   22.297379 C.3        1 MOL1         0.1218
     140    H9      18.721880   19.174026   21.794035 H          1 MOL1         0.0789
     141    C6      20.315948   17.966004   22.584803 C.3        1 MOL1        -0.1761
     142    H10     20.007724   17.293568   21.775902 H          1 MOL1         0.0832
     143    H11     21.405673   18.038577   22.510291 H          1 MOL1         0.0832
     144    C7      19.949364   17.310276   23.938447 C.3        1 MOL1        -0.1685
     145    H12     18.883761   17.445634   24.168234 H          1 MOL1         0.0832
     146    H13     20.105614   16.228412   23.847504 H          1 MOL1         0.0832
     147    O1      20.534216   20.052163   21.403832 O.3        1 MOL1        -0.5509
     148    H14     21.296834   20.365205   21.931938 H          1 MOL1         0.3779
@<TRIPOS>BOND
    1     1     2    1
    2     1     3    1
    3     1     4    1
    4     4     5    1
    5     4     6    1
    6     6     7    1
    7     4     8    1
    8     8     9    1
    9     8    10    1
   10    10    11    1
   11     8    12    1
   12    12    13    1
   13    12    14    1
   14    14    15    1
   15     1    16    1
   16    14    16    1
   17    14    17    1
   18    17    18    1
   19    17    19    1
   20    17    20    1
   21    20    21    1
   22    22    23    1
   23    22    24    1
   24    22    25    1
   25    25    26    1
   26    25    27    1
   27    27    28    1
   28    25    29    1
   29    29    30    1
   30    29    31    1
   31    31    32    1
   32     3    33    1
   33    29    33    1
   34    33    34    1
   35    33    35    1
   36    35    36    1
   37    22    37    1
   38    35    37    1
   39    35    38    1
   40    38    39    1
   41    38    40    1
   42    38    41    1
   43    41    42    1
   44    43    44    1
   45    43    45    1
   46    43    46    1
   47    46    47    1
   48    46    48    1
   49    48    49    1
   50    46    50    1
   51    50    51    1
   52    50    52    1
   53    52    53    1
   54    24    54    1
   55    50    54    1
   56    54    55    1
   57    54    56    1
   58    56    57    1
   59    43    58    1
   60    56    58    1
   61    56    59    1
   62    59    60    1
   63    59    61    1
   64    59    62    1
   65    62    63    1
   66    64    65    1
   67    64    66    1
   68    64    67    1
   69    67    68    1
   70    67    69    1
   71    69    70    1
   72    67    71    1
   73    71    72    1
   74    71    73    1
   75    73    74    1
   76    45    75    1
   77    71    75    1
   78    75    76    1
   79    75    77    1
   80    77    78    1
   81    64    79    1
   82    77    79    1
   83    77    80    1
   84    80    81    1
   85    80    82    1
   86    80    83    1
   87    83    84    1
   88    85    86    1
   89    85    87    1
   90    85    88    1
   91    88    89    1
   92    88    90    1
   93    90    91    1
   94    88    92    1
   95    92    93    1
   96    92    94    1
   97    94    95    1
   98    66    96    1
   99    92    96    1
  100    96    97    1
  101    96    98    1
  102    98    99    1
  103    85   100    1
  104    98   100    1
  105    98   101    1
  106   101   102    1
  107   101   103    1
  108   101   104    1
  109   104   105    1
  110   106   107    1
  111    12   108    1
  112   106   108    1
  113   106   109    1
  114   109   110    1
  115   109   111    1
  116   111   112    1
  117   109   113    1
  118   113   114    1
  119   113   115    1
  120   115   116    1
  121    87   117    1
  122   113   117    1
  123   117   118    1
  124   117   119    1
  125   119   120    1
  126   106   121    1
  127   119   121    1
  128   119   122    1
  129   122   123    1
  130   122   124    1
  131   122   125    1
  132   125   126    1
  133   127   128    1
  134   127   129    1
  135   127   130    1
  136   130   131    1
  137   130   132    1
  138   130   133    1
  139   133   134    1
  140   133   135    1
  141   133   136    1
  142   136   137    1
  143   136   138    1
  144   136   139    1
  145   139   140    1
  146   139   141    1
  147   141   142    1
  148   141   143    1
  149   127   144    1
  150   141   144    1
  151   144   145    1
  152   144   146    1
  153   139   147    1
  154   147   148    1
@<TRIPOS>SUBSTRUCTURE
       1 MOL1            1 RESIDUE      1      MOL     
       2 MOL1          148 RESIDUE      1      MOL     
@<SCITEGIC>MOL_PROPERTY
VM2 Rank
SciTegic.value.IntegerValue
5

@<SCITEGIC>MOL_PROPERTY
Conf_Id
SciTegic.value.IntegerValue
15028

@<SCITEGIC>MOL_PROPERTY
Probability
SciTegic.value.DoubleValue
1.83

@<SCITEGIC>MOL_PROPERTY
Sum Probability
SciTegic.value.DoubleValue
10.29

@<SCITEGIC>MOL_PROPERTY
Delta G
SciTegic.value.DoubleValue
0.167

@<SCITEGIC>MOL_PROPERTY
G
SciTegic.value.DoubleValue
563.179

@<SCITEGIC>MOL_PROPERTY
E
SciTegic.value.DoubleValue
367.463

@<SCITEGIC>MOL_PROPERTY
-TS
SciTegic.value.DoubleValue
195.715

@<SCITEGIC>MOL_PROPERTY
U+W
SciTegic.value.DoubleValue
236.904

@<SCITEGIC>MOL_PROPERTY
U
SciTegic.value.DoubleValue
267.302

@<SCITEGIC>MOL_PROPERTY
W
SciTegic.value.DoubleValue
-30.398

@<SCITEGIC>MOL_PROPERTY
W(PB)
SciTegic.value.DoubleValue
-36.567

@<SCITEGIC>MOL_PROPERTY
W(SA)
SciTegic.value.DoubleValue
6.169

@<SCITEGIC>MOL_PROPERTY
Valence
SciTegic.value.DoubleValue
155.029

@<SCITEGIC>MOL_PROPERTY
Coulomb
SciTegic.value.DoubleValue
139.139

@<SCITEGIC>MOL_PROPERTY
VdW
SciTegic.value.DoubleValue
-26.867

@<SCITEGIC>MOL_PROPERTY
VdW6
SciTegic.value.DoubleValue
-177.800

@<SCITEGIC>MOL_PROPERTY
VdW12
SciTegic.value.DoubleValue
150.933

@<SCITEGIC>MOL_PROPERTY
Bond
SciTegic.value.DoubleValue
4.162

@<SCITEGIC>MOL_PROPERTY
Angle
SciTegic.value.DoubleValue
11.571

@<SCITEGIC>MOL_PROPERTY
Pdih
SciTegic.value.DoubleValue
139.296

@<SCITEGIC>MOL_PROPERTY
Idih
SciTegic.value.DoubleValue
0.000

@<SCITEGIC>MOL_PROPERTY
Tether
SciTegic.value.DoubleValue
0.000

@<TRIPOS>MOLECULE
CD_guest-5_vm2_rndm.mol2 : vm2 host+ligand conformer 6
         148         154           2
SMALL
USER_CHARGES
 
@<TRIPOS>ATOM
       1    C1      16.211918   15.058048   21.188241 C.3        1 MOL1         0.2972
       2    H1      15.132000   14.923340   21.045111 H          1 MOL1         0.0751
       3    O1      16.543538   16.424791   21.506518 O.3        1 MOL1        -0.3740
       4    C2      16.730498   14.150948   22.332271 C.3        1 MOL1         0.1003
       5    H2      16.509463   13.111425   22.057361 H          1 MOL1         0.0783
       6    O2      16.089533   14.462200   23.577257 O.3        1 MOL1        -0.5519
       7    H3      16.577897   13.933352   24.247597 H          1 MOL1         0.3769
       8    C3      18.261722   14.292636   22.489020 C.3        1 MOL1         0.1053
       9    H4      18.460764   15.304763   22.859974 H          1 MOL1         0.0783
      10    O3      18.744988   13.321734   23.425390 O.3        1 MOL1        -0.5519
      11    H5      19.732635   13.383283   23.416012 H          1 MOL1         0.3769
      12    C4      19.002274   14.125711   21.139466 C.3        1 MOL1         0.1018
      13    H6      19.009178   13.061041   20.870806 H          1 MOL1         0.0783
      14    C5      18.348011   14.942560   19.992301 C.3        1 MOL1         0.1043
      15    H7      18.550750   16.010678   20.149471 H          1 MOL1         0.0783
      16    O4      16.920869   14.691342   19.986103 O.3        1 MOL1        -0.3740
      17    C6      18.887089   14.542085   18.603571 C.3        1 MOL1         0.0138
      18    H8      18.696239   13.474021   18.433900 H          1 MOL1         0.0794
      19    H9      19.971898   14.697928   18.576967 H          1 MOL1         0.0794
      20    O5      18.260402   15.329117   17.589418 O.3        1 MOL1        -0.5486
      21    H10     17.293966   15.258661   17.753708 H          1 MOL1         0.3769
      22    C7      14.864439   20.200644   21.675768 C.3        1 MOL1         0.2972
      23    H11     14.196736   21.068053   21.752782 H          1 MOL1         0.0751
      24    O6      16.202648   20.591173   21.305579 O.3        1 MOL1        -0.3740
      25    C8      14.911109   19.445937   23.027667 C.3        1 MOL1         0.1003
      26    H12     13.890317   19.106691   23.246928 H          1 MOL1         0.0783
      27    O7      15.356780   20.302720   24.088137 O.3        1 MOL1        -0.5519
      28    H13     15.532368   19.693923   24.840286 H          1 MOL1         0.3769
      29    C9      15.813476   18.194072   22.931961 C.3        1 MOL1         0.1053
      30    H14     16.850752   18.525388   22.802322 H          1 MOL1         0.0783
      31    O8      15.694612   17.423673   24.133857 O.3        1 MOL1        -0.5519
      32    H15     16.020017   16.515189   23.921079 H          1 MOL1         0.3769
      33    C10     15.431074   17.313545   21.717444 C.3        1 MOL1         0.1018
      34    H16     14.511240   16.766676   21.964758 H          1 MOL1         0.0783
      35    C11     15.227213   18.135869   20.412895 C.3        1 MOL1         0.1043
      36    H17     16.211336   18.475273   20.063513 H          1 MOL1         0.0783
      37    O9      14.378561   19.281459   20.675453 O.3        1 MOL1        -0.3740
      38    C12     14.575491   17.329487   19.267207 C.3        1 MOL1         0.0138
      39    H18     15.256617   16.525905   18.959661 H          1 MOL1         0.0794
      40    H19     14.443159   17.991465   18.400963 H          1 MOL1         0.0794
      41    O10     13.316550   16.782404   19.670420 O.3        1 MOL1        -0.5486
      42    H20     12.761526   17.544653   19.948620 H          1 MOL1         0.3769
      43    C13     18.426298   24.043788   20.673343 C.3        1 MOL1         0.2972
      44    H21     18.804721   25.023863   20.356279 H          1 MOL1         0.0751
      45    O11     19.451617   23.248749   21.296964 O.3        1 MOL1        -0.3740
      46    C14     17.267988   24.207461   21.690551 C.3        1 MOL1         0.1003
      47    H22     16.471684   24.778353   21.195643 H          1 MOL1         0.0783
      48    O12     17.705068   24.913912   22.861053 O.3        1 MOL1        -0.5519
      49    H23     16.950890   24.848320   23.488593 H          1 MOL1         0.3769
      50    C15     16.689636   22.830609   22.099419 C.3        1 MOL1         0.1053
      51    H24     17.453352   22.311538   22.686639 H          1 MOL1         0.0783
      52    O13     15.523851   23.020253   22.910052 O.3        1 MOL1        -0.5519
      53    H25     15.390554   22.168155   23.395035 H          1 MOL1         0.3769
      54    C16     16.362363   21.952142   20.860302 C.3        1 MOL1         0.1018
      55    H26     15.450927   22.324980   20.374031 H          1 MOL1         0.0783
      56    C17     17.509175   21.945288   19.815271 C.3        1 MOL1         0.1043
      57    H27     18.353897   21.361782   20.207996 H          1 MOL1         0.0783
      58    O14     17.911469   23.310415   19.542389 O.3        1 MOL1        -0.3740
      59    C18     17.061333   21.320199   18.477363 C.3        1 MOL1         0.0138
      60    H28     16.223667   21.901232   18.069038 H          1 MOL1         0.0794
      61    H29     16.702868   20.298327   18.656523 H          1 MOL1         0.0794
      62    O15     18.151720   21.301228   17.554415 O.3        1 MOL1        -0.5486
      63    H30     18.509705   22.216031   17.543987 H          1 MOL1         0.3769
      64    C19     23.535266   22.863890   21.780065 C.3        1 MOL1         0.2972
      65    H31     24.616524   23.033261   21.855691 H          1 MOL1         0.0751
      66    O16     23.205832   21.459404   21.885797 O.3        1 MOL1        -0.3740
      67    C20     22.807554   23.635563   22.909254 C.3        1 MOL1         0.1003
      68    H32     23.056572   24.698653   22.796060 H          1 MOL1         0.0783
      69    O17     23.229689   23.183373   24.203306 O.3        1 MOL1        -0.5519
      70    H33     22.606605   23.612816   24.831330 H          1 MOL1         0.3769
      71    C21     21.276250   23.488046   22.781623 C.3        1 MOL1         0.1053
      72    H34     21.027787   22.443099   22.990413 H          1 MOL1         0.0783
      73    O18     20.620266   24.345055   23.724395 O.3        1 MOL1        -0.5519
      74    H35     19.665001   24.360370   23.470797 H          1 MOL1         0.3769
      75    C22     20.773813   23.811649   21.356517 C.3        1 MOL1         0.1018
      76    H36     20.765325   24.901933   21.226833 H          1 MOL1         0.0783
      77    C23     21.637810   23.144760   20.248992 C.3        1 MOL1         0.1043
      78    H37     21.429343   22.067960   20.240477 H          1 MOL1         0.0783
      79    O19     23.043735   23.365812   20.519111 O.3        1 MOL1        -0.3740
      80    C24     21.349074   23.688323   18.832469 C.3        1 MOL1         0.0138
      81    H38     20.315086   23.446249   18.557982 H          1 MOL1         0.0794
      82    H39     22.004347   23.173026   18.117593 H          1 MOL1         0.0794
      83    O20     21.560060   25.101957   18.768629 O.3        1 MOL1        -0.5486
      84    H40     22.486129   25.252987   19.062073 H          1 MOL1         0.3769
      85    C25     25.030392   17.696173   21.785514 C.3        1 MOL1         0.2972
      86    H41     25.764365   16.881354   21.751609 H          1 MOL1         0.0751
      87    O21     23.681404   17.202137   21.690050 O.3        1 MOL1        -0.3740
      88    C26     25.183715   18.487948   23.109460 C.3        1 MOL1         0.1003
      89    H42     26.207484   18.883175   23.137334 H          1 MOL1         0.0783
      90    O22     24.974414   17.645569   24.250952 O.3        1 MOL1        -0.5519
      91    H43     24.913331   18.270166   25.008495 H          1 MOL1         0.3769
      92    C27     24.211675   19.687999   23.158059 C.3        1 MOL1         0.1053
      93    H44     23.190493   19.292248   23.210781 H          1 MOL1         0.0783
      94    O23     24.495734   20.484182   24.315188 O.3        1 MOL1        -0.5519
      95    H45     23.959344   21.311914   24.238444 H          1 MOL1         0.3769
      96    C28     24.332137   20.555641   21.882819 C.3        1 MOL1         0.1018
      97    H46     25.290341   21.090402   21.919980 H          1 MOL1         0.0783
      98    C29     24.279428   19.699972   20.587528 C.3        1 MOL1         0.1043
      99    H47     23.262773   19.299915   20.471364 H          1 MOL1         0.0783
     100    O24     25.235956   18.612099   20.688472 O.3        1 MOL1        -0.3740
     101    C30     24.625490   20.499079   19.311797 C.3        1 MOL1         0.0138
     102    H48     23.886307   21.298407   19.174841 H          1 MOL1         0.0794
     103    H49     24.546335   19.829653   18.444855 H          1 MOL1         0.0794
     104    O25     25.943079   21.051192   19.392983 O.3        1 MOL1        -0.5486
     105    H50     26.544275   20.294950   19.574491 H          1 MOL1         0.3769
     106    C31     21.429888   13.781184   21.005049 C.3        1 MOL1         0.2972
     107    H51     21.088136   12.775544   20.730674 H          1 MOL1         0.0751
     108    O26     20.329179   14.643182   21.355254 O.3        1 MOL1        -0.3740
     109    C32     22.394987   13.700517   22.215223 C.3        1 MOL1         0.1003
     110    H52     23.236112   13.059456   21.920952 H          1 MOL1         0.0783
     111    O27     21.744357   13.131236   23.360161 O.3        1 MOL1        -0.5519
     112    H53     22.382369   13.259819   24.097519 H          1 MOL1         0.3769
     113    C33     22.962018   15.093696   22.574557 C.3        1 MOL1         0.1053
     114    H54     22.141292   15.700099   22.975656 H          1 MOL1         0.0783
     115    O28     23.987799   14.951820   23.564206 O.3        1 MOL1        -0.5519
     116    H55     24.270450   15.867586   23.812167 H          1 MOL1         0.3769
     117    C34     23.528288   15.817476   21.327551 C.3        1 MOL1         0.1018
     118    H56     24.482818   15.355539   21.042233 H          1 MOL1         0.0783
     119    C35     22.564362   15.760004   20.113743 C.3        1 MOL1         0.1043
     120    H57     21.697711   16.405465   20.310683 H          1 MOL1         0.0783
     121    O29     22.145246   14.387439   19.907410 O.3        1 MOL1        -0.3740
     122    C36     23.247305   16.238985   18.815264 C.3        1 MOL1         0.0138
     123    H58     24.081156   15.566116   18.574563 H          1 MOL1         0.0794
     124    H59     23.663843   17.241870   18.973890 H          1 MOL1         0.0794
     125    O30     22.304486   16.272438   17.742539 O.3        1 MOL1        -0.5486
     126    H60     21.883939   15.385406   17.715917 H          1 MOL1         0.3769
     127    C1      20.905979   17.821153   25.178564 C.3        1 MOL1        -0.1685
     128    H1      20.857298   17.112588   26.016251 H          1 MOL1         0.0832
     129    H2      21.951350   17.814566   24.840973 H          1 MOL1         0.0832
     130    C2      20.538911   19.220547   25.715521 C.3        1 MOL1        -0.1685
     131    H3      19.552130   19.179013   26.196155 H          1 MOL1         0.0832
     132    H4      21.251946   19.483998   26.508307 H          1 MOL1         0.0832
     133    C3      20.546077   20.343293   24.655990 C.3        1 MOL1        -0.1685
     134    H5      21.520362   20.399079   24.159390 H          1 MOL1         0.0832
     135    H6      20.423318   21.298794   25.183922 H          1 MOL1         0.0832
     136    C4      19.402055   20.218581   23.621079 C.3        1 MOL1        -0.1761
     137    H7      18.489225   19.869315   24.120169 H          1 MOL1         0.0832
     138    H8      19.163698   21.220469   23.253449 H          1 MOL1         0.0832
     139    C5      19.687907   19.328659   22.390233 C.3        1 MOL1         0.1218
     140    H9      18.728340   19.169932   21.879567 H          1 MOL1         0.0789
     141    C6      20.303145   17.939278   22.672730 C.3        1 MOL1        -0.1761
     142    H10     19.945697   17.263268   21.886967 H          1 MOL1         0.0832
     143    H11     21.389518   17.984999   22.547624 H          1 MOL1         0.0832
     144    C7      19.985831   17.305710   24.048933 C.3        1 MOL1        -0.1685
     145    H12     18.926812   17.436287   24.309871 H          1 MOL1         0.0832
     146    H13     20.148403   16.223567   23.970185 H          1 MOL1         0.0832
     147    O1      20.549945   20.029072   21.503596 O.3        1 MOL1        -0.5509
     148    H14     21.324574   20.315329   22.027715 H          1 MOL1         0.3779
@<TRIPOS>BOND
    1     1     2    1
    2     1     3    1
    3     1     4    1
    4     4     5    1
    5     4     6    1
    6     6     7    1
    7     4     8    1
    8     8     9    1
    9     8    10    1
   10    10    11    1
   11     8    12    1
   12    12    13    1
   13    12    14    1
   14    14    15    1
   15     1    16    1
   16    14    16    1
   17    14    17    1
   18    17    18    1
   19    17    19    1
   20    17    20    1
   21    20    21    1
   22    22    23    1
   23    22    24    1
   24    22    25    1
   25    25    26    1
   26    25    27    1
   27    27    28    1
   28    25    29    1
   29    29    30    1
   30    29    31    1
   31    31    32    1
   32     3    33    1
   33    29    33    1
   34    33    34    1
   35    33    35    1
   36    35    36    1
   37    22    37    1
   38    35    37    1
   39    35    38    1
   40    38    39    1
   41    38    40    1
   42    38    41    1
   43    41    42    1
   44    43    44    1
   45    43    45    1
   46    43    46    1
   47    46    47    1
   48    46    48    1
   49    48    49    1
   50    46    50    1
   51    50    51    1
   52    50    52    1
   53    52    53    1
   54    24    54    1
   55    50    54    1
   56    54    55    1
   57    54    56    1
   58    56    57    1
   59    43    58    1
   60    56    58    1
   61    56    59    1
   62    59    60    1
   63    59    61    1
   64    59    62    1
   65    62    63    1
   66    64    65    1
   67    64    66    1
   68    64    67    1
   69    67    68    1
   70    67    69    1
   71    69    70    1
   72    67    71    1
   73    71    72    1
   74    71    73    1
   75    73    74    1
   76    45    75    1
   77    71    75    1
   78    75    76    1
   79    75    77    1
   80    77    78    1
   81    64    79    1
   82    77    79    1
   83    77    80    1
   84    80    81    1
   85    80    82    1
   86    80    83    1
   87    83    84    1
   88    85    86    1
   89    85    87    1
   90    85    88    1
   91    88    89    1
   92    88    90    1
   93    90    91    1
   94    88    92    1
   95    92    93    1
   96    92    94    1
   97    94    95    1
   98    66    96    1
   99    92    96    1
  100    96    97    1
  101    96    98    1
  102    98    99    1
  103    85   100    1
  104    98   100    1
  105    98   101    1
  106   101   102    1
  107   101   103    1
  108   101   104    1
  109   104   105    1
  110   106   107    1
  111    12   108    1
  112   106   108    1
  113   106   109    1
  114   109   110    1
  115   109   111    1
  116   111   112    1
  117   109   113    1
  118   113   114    1
  119   113   115    1
  120   115   116    1
  121    87   117    1
  122   113   117    1
  123   117   118    1
  124   117   119    1
  125   119   120    1
  126   106   121    1
  127   119   121    1
  128   119   122    1
  129   122   123    1
  130   122   124    1
  131   122   125    1
  132   125   126    1
  133   127   128    1
  134   127   129    1
  135   127   130    1
  136   130   131    1
  137   130   132    1
  138   130   133    1
  139   133   134    1
  140   133   135    1
  141   133   136    1
  142   136   137    1
  143   136   138    1
  144   136   139    1
  145   139   140    1
  146   139   141    1
  147   141   142    1
  148   141   143    1
  149   127   144    1
  150   141   144    1
  151   144   145    1
  152   144   146    1
  153   139   147    1
  154   147   148    1
@<TRIPOS>SUBSTRUCTURE
       1 MOL1            1 RESIDUE      1      MOL     
       2 MOL1          148 RESIDUE      1      MOL     
@<SCITEGIC>MOL_PROPERTY
VM2 Rank
SciTegic.value.IntegerValue
6

@<SCITEGIC>MOL_PROPERTY
Conf_Id
SciTegic.value.IntegerValue
27077

@<SCITEGIC>MOL_PROPERTY
Probability
SciTegic.value.DoubleValue
1.80

@<SCITEGIC>MOL_PROPERTY
Sum Probability
SciTegic.value.DoubleValue
12.10

@<SCITEGIC>MOL_PROPERTY
Delta G
SciTegic.value.DoubleValue
0.175

@<SCITEGIC>MOL_PROPERTY
G
SciTegic.value.DoubleValue
563.187

@<SCITEGIC>MOL_PROPERTY
E
SciTegic.value.DoubleValue
368.376

@<SCITEGIC>MOL_PROPERTY
-TS
SciTegic.value.DoubleValue
194.811

@<SCITEGIC>MOL_PROPERTY
U+W
SciTegic.value.DoubleValue
237.816

@<SCITEGIC>MOL_PROPERTY
U
SciTegic.value.DoubleValue
270.113

@<SCITEGIC>MOL_PROPERTY
W
SciTegic.value.DoubleValue
-32.297

@<SCITEGIC>MOL_PROPERTY
W(PB)
SciTegic.value.DoubleValue
-38.436

@<SCITEGIC>MOL_PROPERTY
W(SA)
SciTegic.value.DoubleValue
6.140

@<SCITEGIC>MOL_PROPERTY
Valence
SciTegic.value.DoubleValue
156.012

@<SCITEGIC>MOL_PROPERTY
Coulomb
SciTegic.value.DoubleValue
141.691

@<SCITEGIC>MOL_PROPERTY
VdW
SciTegic.value.DoubleValue
-27.590

@<SCITEGIC>MOL_PROPERTY
VdW6
SciTegic.value.DoubleValue
-176.622

@<SCITEGIC>MOL_PROPERTY
VdW12
SciTegic.value.DoubleValue
149.032

@<SCITEGIC>MOL_PROPERTY
Bond
SciTegic.value.DoubleValue
4.098

@<SCITEGIC>MOL_PROPERTY
Angle
SciTegic.value.DoubleValue
11.414

@<SCITEGIC>MOL_PROPERTY
Pdih
SciTegic.value.DoubleValue
140.500

@<SCITEGIC>MOL_PROPERTY
Idih
SciTegic.value.DoubleValue
0.000

@<SCITEGIC>MOL_PROPERTY
Tether
SciTegic.value.DoubleValue
0.000

@<TRIPOS>MOLECULE
CD_guest-5_vm2_rndm.mol2 : vm2 host+ligand conformer 7
         148         154           2
SMALL
USER_CHARGES
 
@<TRIPOS>ATOM
       1    C1      16.160295   15.015663   20.990422 C.3        1 MOL1         0.2972
       2    H1      15.102810   14.818992   20.774675 H          1 MOL1         0.0751
       3    O1      16.394753   16.406349   21.287612 O.3        1 MOL1        -0.3740
       4    C2      16.614005   14.167508   22.205080 C.3        1 MOL1         0.1003
       5    H2      16.450440   13.113006   21.947599 H          1 MOL1         0.0783
       6    O2      15.848638   14.494272   23.374194 O.3        1 MOL1        -0.5519
       7    H3      16.307669   14.029558   24.109280 H          1 MOL1         0.3769
       8    C3      18.121363   14.357502   22.494159 C.3        1 MOL1         0.1053
       9    H4      18.267311   15.376365   22.867789 H          1 MOL1         0.0783
      10    O3      18.542540   13.414832   23.487063 O.3        1 MOL1        -0.5519
      11    H5      19.513567   13.555514   23.617853 H          1 MOL1         0.3769
      12    C4      18.981643   14.193750   21.217362 C.3        1 MOL1         0.1018
      13    H6      19.058744   13.125560   20.975782 H          1 MOL1         0.0783
      14    C5      18.395322   14.956926   19.998669 C.3        1 MOL1         0.1043
      15    H7      18.533674   16.034135   20.161943 H          1 MOL1         0.0783
      16    O4      16.983974   14.653465   19.862890 O.3        1 MOL1        -0.3740
      17    C6      19.081543   14.593532   18.664096 C.3        1 MOL1         0.0138
      18    H8      20.141036   14.870863   18.721721 H          1 MOL1         0.0794
      19    H9      18.630517   15.191092   17.860608 H          1 MOL1         0.0794
      20    O5      18.950258   13.197673   18.379119 O.3        1 MOL1        -0.5486
      21    H10     17.986926   13.003639   18.404151 H          1 MOL1         0.3769
      22    C7      14.749184   20.204575   21.027090 C.3        1 MOL1         0.2972
      23    H11     14.106388   21.074147   20.838466 H          1 MOL1         0.0751
      24    O6      16.069026   20.598667   21.453370 O.3        1 MOL1        -0.3740
      25    C8      14.132371   19.293683   22.119450 C.3        1 MOL1         0.1003
      26    H12     13.143783   18.973778   21.765376 H          1 MOL1         0.0783
      27    O7      13.990943   19.993322   23.363810 O.3        1 MOL1        -0.5519
      28    H13     13.719783   19.302370   24.009170 H          1 MOL1         0.3769
      29    C9      14.999756   18.031922   22.331798 C.3        1 MOL1         0.1053
      30    H14     15.946620   18.358456   22.777469 H          1 MOL1         0.0783
      31    O8      14.331971   17.120654   23.213452 O.3        1 MOL1        -0.5519
      32    H15     14.908074   16.318995   23.282742 H          1 MOL1         0.3769
      33    C10     15.321123   17.320062   20.995070 C.3        1 MOL1         0.1018
      34    H16     14.419211   16.803473   20.640870 H          1 MOL1         0.0783
      35    C11     15.808824   18.304730   19.898837 C.3        1 MOL1         0.1043
      36    H17     16.817743   18.656579   20.152488 H          1 MOL1         0.0783
      37    O9      14.885152   19.418754   19.824082 O.3        1 MOL1        -0.3740
      38    C12     15.855361   17.655317   18.500019 C.3        1 MOL1         0.0138
      39    H18     14.848932   17.312728   18.224845 H          1 MOL1         0.0794
      40    H19     16.512337   16.777746   18.526247 H          1 MOL1         0.0794
      41    O10     16.344183   18.595256   17.541594 O.3        1 MOL1        -0.5486
      42    H20     15.800249   19.405626   17.657531 H          1 MOL1         0.3769
      43    C13     18.451557   23.956416   21.846312 C.3        1 MOL1         0.2972
      44    H21     18.854349   24.968590   21.978646 H          1 MOL1         0.0751
      45    O11     19.484427   23.016904   21.484871 O.3        1 MOL1        -0.3740
      46    C14     17.768117   23.484069   23.153666 C.3        1 MOL1         0.1003
      47    H22     16.949324   24.184266   23.364568 H          1 MOL1         0.0783
      48    O12     18.687457   23.494199   24.254645 O.3        1 MOL1        -0.5519
      49    H23     18.220314   23.009353   24.971482 H          1 MOL1         0.3769
      50    C15     17.151836   22.076650   22.980440 C.3        1 MOL1         0.1053
      51    H24     17.969147   21.354999   22.863983 H          1 MOL1         0.0783
      52    O13     16.372497   21.747326   24.136449 O.3        1 MOL1        -0.5519
      53    H25     15.754437   21.026458   23.863730 H          1 MOL1         0.3769
      54    C16     16.255609   22.000868   21.720408 C.3        1 MOL1         0.1018
      55    H26     15.305043   22.504218   21.942906 H          1 MOL1         0.0783
      56    C17     16.917481   22.641007   20.466315 C.3        1 MOL1         0.1043
      57    H27     17.726387   21.979049   20.129766 H          1 MOL1         0.0783
      58    O14     17.457491   23.944144   20.800816 O.3        1 MOL1        -0.3740
      59    C18     15.946264   22.833808   19.279990 C.3        1 MOL1         0.0138
      60    H28     15.621225   21.850575   18.916804 H          1 MOL1         0.0794
      61    H29     16.487064   23.320270   18.457178 H          1 MOL1         0.0794
      62    O15     14.812752   23.619013   19.661169 O.3        1 MOL1        -0.5486
      63    H30     15.168197   24.475069   19.988735 H          1 MOL1         0.3769
      64    C19     23.603079   22.872396   20.967220 C.3        1 MOL1         0.2972
      65    H31     24.650002   23.053194   20.692266 H          1 MOL1         0.0751
      66    O16     23.411918   21.555815   21.515551 O.3        1 MOL1        -0.3740
      67    C20     23.127312   23.900697   22.025534 C.3        1 MOL1         0.1003
      68    H32     23.232136   24.900828   21.585424 H          1 MOL1         0.0783
      69    O17     23.920596   23.818520   23.218863 O.3        1 MOL1        -0.5519
      70    H33     23.464015   24.404489   23.863157 H          1 MOL1         0.3769
      71    C21     21.635113   23.683772   22.377451 C.3        1 MOL1         0.1053
      72    H34     21.555658   22.732378   22.912707 H          1 MOL1         0.0783
      73    O18     21.182013   24.741509   23.230809 O.3        1 MOL1        -0.5519
      74    H35     20.357132   24.406694   23.662749 H          1 MOL1         0.3769
      75    C22     20.750739   23.589036   21.104022 C.3        1 MOL1         0.1018
      76    H36     20.625431   24.588744   20.666885 H          1 MOL1         0.0783
      77    C23     21.356387   22.653638   20.024359 C.3        1 MOL1         0.1043
      78    H37     21.266041   21.609995   20.357306 H          1 MOL1         0.0783
      79    O19     22.746307   23.006946   19.813911 O.3        1 MOL1        -0.3740
      80    C24     20.633068   22.800632   18.669191 C.3        1 MOL1         0.0138
      81    H38     20.731087   23.836333   18.317448 H          1 MOL1         0.0794
      82    H39     19.563638   22.593911   18.804430 H          1 MOL1         0.0794
      83    O20     21.189104   21.895035   17.714391 O.3        1 MOL1        -0.5486
      84    H40     22.161160   22.033554   17.747819 H          1 MOL1         0.3769
      85    C25     25.084895   17.813494   21.895074 C.3        1 MOL1         0.2972
      86    H41     25.757018   16.950162   21.975351 H          1 MOL1         0.0751
      87    O21     23.696248   17.408028   21.879183 O.3        1 MOL1        -0.3740
      88    C26     25.326996   18.761719   23.094558 C.3        1 MOL1         0.1003
      89    H42     26.379361   19.072469   23.063522 H          1 MOL1         0.0783
      90    O22     25.063105   18.097803   24.338227 O.3        1 MOL1        -0.5519
      91    H43     25.081391   18.814648   25.011026 H          1 MOL1         0.3769
      92    C27     24.452470   20.027095   22.982167 C.3        1 MOL1         0.1053
      93    H44     23.412720   19.715389   23.113011 H          1 MOL1         0.0783
      94    O23     24.814293   20.967487   24.000963 O.3        1 MOL1        -0.5519
      95    H45     24.372107   21.819353   23.764802 H          1 MOL1         0.3769
      96    C28     24.564854   20.700271   21.595693 C.3        1 MOL1         0.1018
      97    H46     25.504834   21.266254   21.553580 H          1 MOL1         0.0783
      98    C29     24.492612   19.682394   20.421930 C.3        1 MOL1         0.1043
      99    H47     23.455879   19.335891   20.325128 H          1 MOL1         0.0783
     100    O24     25.361576   18.551702   20.686279 O.3        1 MOL1        -0.3740
     101    C30     24.912257   20.282206   19.061979 C.3        1 MOL1         0.0138
     102    H48     24.208865   21.078122   18.787477 H          1 MOL1         0.0794
     103    H49     24.835419   19.501232   18.293680 H          1 MOL1         0.0794
     104    O25     26.245932   20.797357   19.114678 O.3        1 MOL1        -0.5486
     105    H50     26.816457   20.050679   19.403525 H          1 MOL1         0.3769
     106    C31     21.408813   13.918443   21.404600 C.3        1 MOL1         0.2972
     107    H51     21.117682   12.875887   21.225848 H          1 MOL1         0.0751
     108    O26     20.261431   14.780357   21.522671 O.3        1 MOL1        -0.3740
     109    C32     22.238490   14.021811   22.711511 C.3        1 MOL1         0.1003
     110    H52     23.112441   13.367851   22.594954 H          1 MOL1         0.0783
     111    O27     21.479832   13.592683   23.850646 O.3        1 MOL1        -0.5519
     112    H53     22.029797   13.850782   24.624287 H          1 MOL1         0.3769
     113    C33     22.752451   15.462962   22.937869 C.3        1 MOL1         0.1053
     114    H54     21.886502   16.104497   23.144688 H          1 MOL1         0.0783
     115    O28     23.655887   15.478054   24.050238 O.3        1 MOL1        -0.5519
     116    H55     24.009816   16.399080   24.125677 H          1 MOL1         0.3769
     117    C34     23.467851   15.997909   21.674014 C.3        1 MOL1         0.1018
     118    H56     24.407954   15.445174   21.544987 H          1 MOL1         0.0783
     119    C35     22.609618   15.804355   20.396425 C.3        1 MOL1         0.1043
     120    H57     21.724297   16.452838   20.447070 H          1 MOL1         0.0783
     121    O29     22.223157   14.408345   20.316716 O.3        1 MOL1        -0.3740
     122    C36     23.393408   16.137578   19.109375 C.3        1 MOL1         0.0138
     123    H58     24.298026   15.516701   19.064002 H          1 MOL1         0.0794
     124    H59     23.709726   17.187368   19.139474 H          1 MOL1         0.0794
     125    O30     22.574474   15.911135   17.960584 O.3        1 MOL1        -0.5486
     126    H60     22.236305   14.992341   18.048640 H          1 MOL1         0.3769
     127    C1      19.311225   17.373621   25.075318 C.3        1 MOL1        -0.1685
     128    H1      18.633999   17.045816   25.875377 H          1 MOL1         0.0832
     129    H2      19.826338   16.467155   24.728673 H          1 MOL1         0.0832
     130    C2      20.336570   18.352499   25.686333 C.3        1 MOL1        -0.1685
     131    H3      19.803628   19.168367   26.193097 H          1 MOL1         0.0832
     132    H4      20.895207   17.822883   26.469733 H          1 MOL1         0.0832
     133    C3      21.344786   18.947212   24.678965 C.3        1 MOL1        -0.1685
     134    H5      21.875040   18.148865   24.146845 H          1 MOL1         0.0832
     135    H6      22.109713   19.487439   25.253220 H          1 MOL1         0.0832
     136    C4      20.697808   19.943671   23.685707 C.3        1 MOL1        -0.1761
     137    H7      19.922590   20.526154   24.199631 H          1 MOL1         0.0832
     138    H8      21.452700   20.675865   23.386496 H          1 MOL1         0.0832
     139    C5      20.106684   19.326136   22.398578 C.3        1 MOL1         0.1218
     140    H9      19.478590   20.094921   21.928589 H          1 MOL1         0.0789
     141    C6      19.240967   18.061338   22.591190 C.3        1 MOL1        -0.1761
     142    H10     18.523335   18.029812   21.763184 H          1 MOL1         0.0832
     143    H11     19.863315   17.167468   22.475759 H          1 MOL1         0.0832
     144    C7      18.462552   17.964805   23.926475 C.3        1 MOL1        -0.1685
     145    H12     18.037693   18.937781   24.208267 H          1 MOL1         0.0832
     146    H13     17.607782   17.293974   23.777908 H          1 MOL1         0.0832
     147    O1      21.167638   19.012984   21.506458 O.3        1 MOL1        -0.5509
     148    H14     21.804984   18.462803   22.004980 H          1 MOL1         0.3779
@<TRIPOS>BOND
    1     1     2    1
    2     1     3    1
    3     1     4    1
    4     4     5    1
    5     4     6    1
    6     6     7    1
    7     4     8    1
    8     8     9    1
    9     8    10    1
   10    10    11    1
   11     8    12    1
   12    12    13    1
   13    12    14    1
   14    14    15    1
   15     1    16    1
   16    14    16    1
   17    14    17    1
   18    17    18    1
   19    17    19    1
   20    17    20    1
   21    20    21    1
   22    22    23    1
   23    22    24    1
   24    22    25    1
   25    25    26    1
   26    25    27    1
   27    27    28    1
   28    25    29    1
   29    29    30    1
   30    29    31    1
   31    31    32    1
   32     3    33    1
   33    29    33    1
   34    33    34    1
   35    33    35    1
   36    35    36    1
   37    22    37    1
   38    35    37    1
   39    35    38    1
   40    38    39    1
   41    38    40    1
   42    38    41    1
   43    41    42    1
   44    43    44    1
   45    43    45    1
   46    43    46    1
   47    46    47    1
   48    46    48    1
   49    48    49    1
   50    46    50    1
   51    50    51    1
   52    50    52    1
   53    52    53    1
   54    24    54    1
   55    50    54    1
   56    54    55    1
   57    54    56    1
   58    56    57    1
   59    43    58    1
   60    56    58    1
   61    56    59    1
   62    59    60    1
   63    59    61    1
   64    59    62    1
   65    62    63    1
   66    64    65    1
   67    64    66    1
   68    64    67    1
   69    67    68    1
   70    67    69    1
   71    69    70    1
   72    67    71    1
   73    71    72    1
   74    71    73    1
   75    73    74    1
   76    45    75    1
   77    71    75    1
   78    75    76    1
   79    75    77    1
   80    77    78    1
   81    64    79    1
   82    77    79    1
   83    77    80    1
   84    80    81    1
   85    80    82    1
   86    80    83    1
   87    83    84    1
   88    85    86    1
   89    85    87    1
   90    85    88    1
   91    88    89    1
   92    88    90    1
   93    90    91    1
   94    88    92    1
   95    92    93    1
   96    92    94    1
   97    94    95    1
   98    66    96    1
   99    92    96    1
  100    96    97    1
  101    96    98    1
  102    98    99    1
  103    85   100    1
  104    98   100    1
  105    98   101    1
  106   101   102    1
  107   101   103    1
  108   101   104    1
  109   104   105    1
  110   106   107    1
  111    12   108    1
  112   106   108    1
  113   106   109    1
  114   109   110    1
  115   109   111    1
  116   111   112    1
  117   109   113    1
  118   113   114    1
  119   113   115    1
  120   115   116    1
  121    87   117    1
  122   113   117    1
  123   117   118    1
  124   117   119    1
  125   119   120    1
  126   106   121    1
  127   119   121    1
  128   119   122    1
  129   122   123    1
  130   122   124    1
  131   122   125    1
  132   125   126    1
  133   127   128    1
  134   127   129    1
  135   127   130    1
  136   130   131    1
  137   130   132    1
  138   130   133    1
  139   133   134    1
  140   133   135    1
  141   133   136    1
  142   136   137    1
  143   136   138    1
  144   136   139    1
  145   139   140    1
  146   139   141    1
  147   141   142    1
  148   141   143    1
  149   127   144    1
  150   141   144    1
  151   144   145    1
  152   144   146    1
  153   139   147    1
  154   147   148    1
@<TRIPOS>SUBSTRUCTURE
       1 MOL1            1 RESIDUE      1      MOL     
       2 MOL1          148 RESIDUE      1      MOL     
@<SCITEGIC>MOL_PROPERTY
VM2 Rank
SciTegic.value.IntegerValue
7

@<SCITEGIC>MOL_PROPERTY
Conf_Id
SciTegic.value.IntegerValue
24955

@<SCITEGIC>MOL_PROPERTY
Probability
SciTegic.value.DoubleValue
1.49

@<SCITEGIC>MOL_PROPERTY
Sum Probability
SciTegic.value.DoubleValue
13.59

@<SCITEGIC>MOL_PROPERTY
Delta G
SciTegic.value.DoubleValue
0.287

@<SCITEGIC>MOL_PROPERTY
G
SciTegic.value.DoubleValue
563.299

@<SCITEGIC>MOL_PROPERTY
E
SciTegic.value.DoubleValue
368.199

@<SCITEGIC>MOL_PROPERTY
-TS
SciTegic.value.DoubleValue
195.100

@<SCITEGIC>MOL_PROPERTY
U+W
SciTegic.value.DoubleValue
237.639

@<SCITEGIC>MOL_PROPERTY
U
SciTegic.value.DoubleValue
269.455

@<SCITEGIC>MOL_PROPERTY
W
SciTegic.value.DoubleValue
-31.816

@<SCITEGIC>MOL_PROPERTY
W(PB)
SciTegic.value.DoubleValue
-37.945

@<SCITEGIC>MOL_PROPERTY
W(SA)
SciTegic.value.DoubleValue
6.129

@<SCITEGIC>MOL_PROPERTY
Valence
SciTegic.value.DoubleValue
155.823

@<SCITEGIC>MOL_PROPERTY
Coulomb
SciTegic.value.DoubleValue
141.123

@<SCITEGIC>MOL_PROPERTY
VdW
SciTegic.value.DoubleValue
-27.491

@<SCITEGIC>MOL_PROPERTY
VdW6
SciTegic.value.DoubleValue
-176.912

@<SCITEGIC>MOL_PROPERTY
VdW12
SciTegic.value.DoubleValue
149.421

@<SCITEGIC>MOL_PROPERTY
Bond
SciTegic.value.DoubleValue
4.120

@<SCITEGIC>MOL_PROPERTY
Angle
SciTegic.value.DoubleValue
11.107

@<SCITEGIC>MOL_PROPERTY
Pdih
SciTegic.value.DoubleValue
140.596

@<SCITEGIC>MOL_PROPERTY
Idih
SciTegic.value.DoubleValue
0.000

@<SCITEGIC>MOL_PROPERTY
Tether
SciTegic.value.DoubleValue
0.000

@<TRIPOS>MOLECULE
CD_guest-5_vm2_rndm.mol2 : vm2 host+ligand conformer 8
         148         154           2
SMALL
USER_CHARGES
 
@<TRIPOS>ATOM
       1    C1      16.207612   15.106261   21.147305 C.3        1 MOL1         0.2972
       2    H1      15.127524   14.977936   21.000687 H          1 MOL1         0.0751
       3    O1      16.542319   16.464474   21.495151 O.3        1 MOL1        -0.3740
       4    C2      16.718375   14.176695   22.277412 C.3        1 MOL1         0.1003
       5    H2      16.493836   13.142806   21.984734 H          1 MOL1         0.0783
       6    O2      16.074054   14.472098   23.524943 O.3        1 MOL1        -0.5519
       7    H3      16.561593   13.935743   24.189831 H          1 MOL1         0.3769
       8    C3      18.249282   14.309476   22.443466 C.3        1 MOL1         0.1053
       9    H4      18.450815   15.316732   22.825749 H          1 MOL1         0.0783
      10    O3      18.727021   13.327693   23.371616 O.3        1 MOL1        -0.5519
      11    H5      19.715067   13.378744   23.354976 H          1 MOL1         0.3769
      12    C4      18.993635   14.154267   21.095760 C.3        1 MOL1         0.1018
      13    H6      18.997467   13.092077   20.817957 H          1 MOL1         0.0783
      14    C5      18.347187   14.991468   19.958025 C.3        1 MOL1         0.1043
      15    H7      18.553472   16.053967   20.143970 H          1 MOL1         0.0783
      16    O4      16.916593   14.764911   19.937352 O.3        1 MOL1        -0.3740
      17    C6      18.889649   14.642838   18.554791 C.3        1 MOL1         0.0138
      18    H8      19.959120   14.880570   18.515067 H          1 MOL1         0.0794
      19    H9      18.386893   15.278990   17.814222 H          1 MOL1         0.0794
      20    O5      18.678257   13.261668   18.247379 O.3        1 MOL1        -0.5486
      21    H10     17.713284   13.104009   18.348795 H          1 MOL1         0.3769
      22    C7      14.897027   20.248789   21.628733 C.3        1 MOL1         0.2972
      23    H11     14.241766   21.126632   21.691435 H          1 MOL1         0.0751
      24    O6      16.248820   20.617074   21.283342 O.3        1 MOL1        -0.3740
      25    C8      14.910698   19.499217   22.983488 C.3        1 MOL1         0.1003
      26    H12     13.883036   19.170177   23.185683 H          1 MOL1         0.0783
      27    O7      15.346792   20.357534   24.047144 O.3        1 MOL1        -0.5519
      28    H13     15.505664   19.751376   24.805003 H          1 MOL1         0.3769
      29    C9      15.803765   18.239398   22.904527 C.3        1 MOL1         0.1053
      30    H14     16.845159   18.562023   22.786202 H          1 MOL1         0.0783
      31    O8      15.666275   17.471665   24.106411 O.3        1 MOL1        -0.5519
      32    H15     15.995984   16.563681   23.899374 H          1 MOL1         0.3769
      33    C10     15.429830   17.357368   21.688632 C.3        1 MOL1         0.1018
      34    H16     14.505542   16.815681   21.930643 H          1 MOL1         0.0783
      35    C11     15.241051   18.173198   20.377555 C.3        1 MOL1         0.1043
      36    H17     16.231063   18.503586   20.038121 H          1 MOL1         0.0783
      37    O9      14.410172   19.333672   20.626705 O.3        1 MOL1        -0.3740
      38    C12     14.603763   17.365106   19.221389 C.3        1 MOL1         0.0138
      39    H18     15.345883   16.649694   18.843199 H          1 MOL1         0.0794
      40    H19     14.371981   18.055903   18.399550 H          1 MOL1         0.0794
      41    O10     13.421345   16.667821   19.634387 O.3        1 MOL1        -0.5486
      42    H20     13.035964   16.239217   18.839223 H          1 MOL1         0.3769
      43    C13     18.506306   24.055557   20.648454 C.3        1 MOL1         0.2972
      44    H21     18.891687   25.029381   20.320489 H          1 MOL1         0.0751
      45    O11     19.511461   23.285510   21.331799 O.3        1 MOL1        -0.3740
      46    C14     17.310193   24.239571   21.618301 C.3        1 MOL1         0.1003
      47    H22     16.530547   24.795173   21.081278 H          1 MOL1         0.0783
      48    O12     17.704491   24.975937   22.785791 O.3        1 MOL1        -0.5519
      49    H23     16.931731   24.916886   23.390940 H          1 MOL1         0.3769
      50    C15     16.721038   22.871538   22.041856 C.3        1 MOL1         0.1053
      51    H24     17.469712   22.366516   22.660339 H          1 MOL1         0.0783
      52    O13     15.535412   23.076007   22.819876 O.3        1 MOL1        -0.5519
      53    H25     15.390972   22.233311   23.317586 H          1 MOL1         0.3769
      54    C16     16.429880   21.966930   20.812385 C.3        1 MOL1         0.1018
      55    H26     15.537413   22.331180   20.286305 H          1 MOL1         0.0783
      56    C17     17.619346   21.934091   19.815484 C.3        1 MOL1         0.1043
      57    H27     18.444952   21.370961   20.271726 H          1 MOL1         0.0783
      58    O14     18.044627   23.286983   19.518245 O.3        1 MOL1        -0.3740
      59    C18     17.267816   21.252469   18.474632 C.3        1 MOL1         0.0138
      60    H28     16.956240   20.218122   18.667668 H          1 MOL1         0.0794
      61    H29     18.172336   21.212857   17.853209 H          1 MOL1         0.0794
      62    O15     16.228980   21.961508   17.792836 O.3        1 MOL1        -0.5486
      63    H30     16.531495   22.895274   17.736165 H          1 MOL1         0.3769
      64    C19     23.583537   22.874521   21.844570 C.3        1 MOL1         0.2972
      65    H31     24.665395   23.032128   21.935529 H          1 MOL1         0.0751
      66    O16     23.238933   21.471649   21.922895 O.3        1 MOL1        -0.3740
      67    C20     22.849973   23.636522   22.976332 C.3        1 MOL1         0.1003
      68    H32     23.107970   24.699199   22.880728 H          1 MOL1         0.0783
      69    O17     23.254116   23.162723   24.268358 O.3        1 MOL1        -0.5519
      70    H33     22.628205   23.588514   24.896004 H          1 MOL1         0.3769
      71    C21     21.319719   23.501258   22.828734 C.3        1 MOL1         0.1053
      72    H34     21.063027   22.454989   23.019646 H          1 MOL1         0.0783
      73    O18     20.654780   24.348014   23.774463 O.3        1 MOL1        -0.5519
      74    H35     19.704339   24.369425   23.506347 H          1 MOL1         0.3769
      75    C22     20.833531   23.846595   21.403474 C.3        1 MOL1         0.1018
      76    H36     20.824423   24.938864   21.291435 H          1 MOL1         0.0783
      77    C23     21.708166   23.196228   20.293429 C.3        1 MOL1         0.1043
      78    H37     21.492399   22.121191   20.260642 H          1 MOL1         0.0783
      79    O19     23.111932   23.401208   20.586503 O.3        1 MOL1        -0.3740
      80    C24     21.447700   23.771350   18.883406 C.3        1 MOL1         0.0138
      81    H38     20.420441   23.535530   18.579479 H          1 MOL1         0.0794
      82    H39     22.118476   23.272454   18.171288 H          1 MOL1         0.0794
      83    O20     21.660316   25.185965   18.855434 O.3        1 MOL1        -0.5486
      84    H40     22.581526   25.329689   19.167284 H          1 MOL1         0.3769
      85    C25     25.030162   17.693914   21.789437 C.3        1 MOL1         0.2972
      86    H41     25.756622   16.872523   21.751599 H          1 MOL1         0.0751
      87    O21     23.677716   17.214050   21.673584 O.3        1 MOL1        -0.3740
      88    C26     25.178452   18.466173   23.125435 C.3        1 MOL1         0.1003
      89    H42     26.205507   18.851450   23.167952 H          1 MOL1         0.0783
      90    O22     24.951254   17.610122   24.253254 O.3        1 MOL1        -0.5519
      91    H43     24.888170   18.224765   25.018720 H          1 MOL1         0.3769
      92    C27     24.217199   19.674538   23.181696 C.3        1 MOL1         0.1053
      93    H44     23.192021   19.287913   23.220053 H          1 MOL1         0.0783
      94    O23     24.498008   20.452296   24.352044 O.3        1 MOL1        -0.5519
      95    H45     23.968006   21.284795   24.283045 H          1 MOL1         0.3769
      96    C28     24.357481   20.558071   21.919455 C.3        1 MOL1         0.1018
      97    H46     25.319927   21.083736   21.973176 H          1 MOL1         0.0783
      98    C29     24.310424   19.721075   20.611864 C.3        1 MOL1         0.1043
      99    H47     23.291170   19.332969   20.479789 H          1 MOL1         0.0783
     100    O24     25.254810   18.622163   20.706626 O.3        1 MOL1        -0.3740
     101    C30     24.677712   20.534907   19.351423 C.3        1 MOL1         0.0138
     102    H48     23.948303   21.343855   19.218667 H          1 MOL1         0.0794
     103    H49     24.600825   19.878997   18.474031 H          1 MOL1         0.0794
     104    O25     25.999894   21.072180   19.453979 O.3        1 MOL1        -0.5486
     105    H50     26.591588   20.307265   19.630370 H          1 MOL1         0.3769
     106    C31     21.415518   13.808655   20.937297 C.3        1 MOL1         0.2972
     107    H51     21.068476   12.810722   20.641553 H          1 MOL1         0.0751
     108    O26     20.321366   14.663534   21.323477 O.3        1 MOL1        -0.3740
     109    C32     22.390630   13.700543   22.137406 C.3        1 MOL1         0.1003
     110    H52     23.228624   13.065184   21.822621 H          1 MOL1         0.0783
     111    O27     21.747891   13.107808   23.275358 O.3        1 MOL1        -0.5519
     112    H53     22.391322   13.220354   24.010527 H          1 MOL1         0.3769
     113    C33     22.961477   15.086375   22.521979 C.3        1 MOL1         0.1053
     114    H54     22.144194   15.684358   22.943070 H          1 MOL1         0.0783
     115    O28     23.995345   14.923407   23.499916 O.3        1 MOL1        -0.5519
     116    H55     24.272009   15.833808   23.773121 H          1 MOL1         0.3769
     117    C34     23.517361   15.837226   21.285720 C.3        1 MOL1         0.1018
     118    H56     24.467727   15.379802   20.979945 H          1 MOL1         0.0783
     119    C35     22.541222   15.806791   20.081352 C.3        1 MOL1         0.1043
     120    H57     21.674859   16.444336   20.301970 H          1 MOL1         0.0783
     121    O29     22.124241   14.438824   19.848879 O.3        1 MOL1        -0.3740
     122    C36     23.206216   16.317851   18.786068 C.3        1 MOL1         0.0138
     123    H58     24.069174   15.682558   18.545827 H          1 MOL1         0.0794
     124    H59     23.577973   17.337688   18.948533 H          1 MOL1         0.0794
     125    O30     22.263844   16.308671   17.711983 O.3        1 MOL1        -0.5486
     126    H60     21.918706   15.389984   17.663766 H          1 MOL1         0.3769
     127    C1      20.876806   17.827042   25.153584 C.3        1 MOL1        -0.1685
     128    H1      20.812531   17.116956   25.988930 H          1 MOL1         0.0832
     129    H2      21.927515   17.818285   24.833039 H          1 MOL1         0.0832
     130    C2      20.504874   19.226349   25.687007 C.3        1 MOL1        -0.1685
     131    H3      19.510680   19.186817   26.152301 H          1 MOL1         0.0832
     132    H4      21.206310   19.486647   26.491105 H          1 MOL1         0.0832
     133    C3      20.531919   20.350319   24.629199 C.3        1 MOL1        -0.1685
     134    H5      21.512473   20.400155   24.144366 H          1 MOL1         0.0832
     135    H6      20.408960   21.305649   25.157405 H          1 MOL1         0.0832
     136    C4      19.399361   20.234727   23.580598 C.3        1 MOL1        -0.1761
     137    H7      18.479088   19.890475   24.069369 H          1 MOL1         0.0832
     138    H8      19.170741   21.238540   23.211677 H          1 MOL1         0.0832
     139    C5      19.692609   19.343837   22.352188 C.3        1 MOL1         0.1218
     140    H9      18.734864   19.180923   21.839331 H          1 MOL1         0.0789
     141    C6      20.310553   17.956885   22.639704 C.3        1 MOL1        -0.1761
     142    H10     19.968659   17.281817   21.846603 H          1 MOL1         0.0832
     143    H11     21.398455   18.008289   22.532775 H          1 MOL1         0.0832
     144    C7      19.974178   17.316437   24.007941 C.3        1 MOL1        -0.1685
     145    H12     18.911278   17.444397   24.254008 H          1 MOL1         0.0832
     146    H13     20.140233   16.235025   23.926117 H          1 MOL1         0.0832
     147    O1      20.556650   20.045159   21.467010 O.3        1 MOL1        -0.5509
     148    H14     21.327938   20.332871   21.995778 H          1 MOL1         0.3779
@<TRIPOS>BOND
    1     1     2    1
    2     1     3    1
    3     1     4    1
    4     4     5    1
    5     4     6    1
    6     6     7    1
    7     4     8    1
    8     8     9    1
    9     8    10    1
   10    10    11    1
   11     8    12    1
   12    12    13    1
   13    12    14    1
   14    14    15    1
   15     1    16    1
   16    14    16    1
   17    14    17    1
   18    17    18    1
   19    17    19    1
   20    17    20    1
   21    20    21    1
   22    22    23    1
   23    22    24    1
   24    22    25    1
   25    25    26    1
   26    25    27    1
   27    27    28    1
   28    25    29    1
   29    29    30    1
   30    29    31    1
   31    31    32    1
   32     3    33    1
   33    29    33    1
   34    33    34    1
   35    33    35    1
   36    35    36    1
   37    22    37    1
   38    35    37    1
   39    35    38    1
   40    38    39    1
   41    38    40    1
   42    38    41    1
   43    41    42    1
   44    43    44    1
   45    43    45    1
   46    43    46    1
   47    46    47    1
   48    46    48    1
   49    48    49    1
   50    46    50    1
   51    50    51    1
   52    50    52    1
   53    52    53    1
   54    24    54    1
   55    50    54    1
   56    54    55    1
   57    54    56    1
   58    56    57    1
   59    43    58    1
   60    56    58    1
   61    56    59    1
   62    59    60    1
   63    59    61    1
   64    59    62    1
   65    62    63    1
   66    64    65    1
   67    64    66    1
   68    64    67    1
   69    67    68    1
   70    67    69    1
   71    69    70    1
   72    67    71    1
   73    71    72    1
   74    71    73    1
   75    73    74    1
   76    45    75    1
   77    71    75    1
   78    75    76    1
   79    75    77    1
   80    77    78    1
   81    64    79    1
   82    77    79    1
   83    77    80    1
   84    80    81    1
   85    80    82    1
   86    80    83    1
   87    83    84    1
   88    85    86    1
   89    85    87    1
   90    85    88    1
   91    88    89    1
   92    88    90    1
   93    90    91    1
   94    88    92    1
   95    92    93    1
   96    92    94    1
   97    94    95    1
   98    66    96    1
   99    92    96    1
  100    96    97    1
  101    96    98    1
  102    98    99    1
  103    85   100    1
  104    98   100    1
  105    98   101    1
  106   101   102    1
  107   101   103    1
  108   101   104    1
  109   104   105    1
  110   106   107    1
  111    12   108    1
  112   106   108    1
  113   106   109    1
  114   109   110    1
  115   109   111    1
  116   111   112    1
  117   109   113    1
  118   113   114    1
  119   113   115    1
  120   115   116    1
  121    87   117    1
  122   113   117    1
  123   117   118    1
  124   117   119    1
  125   119   120    1
  126   106   121    1
  127   119   121    1
  128   119   122    1
  129   122   123    1
  130   122   124    1
  131   122   125    1
  132   125   126    1
  133   127   128    1
  134   127   129    1
  135   127   130    1
  136   130   131    1
  137   130   132    1
  138   130   133    1
  139   133   134    1
  140   133   135    1
  141   133   136    1
  142   136   137    1
  143   136   138    1
  144   136   139    1
  145   139   140    1
  146   139   141    1
  147   141   142    1
  148   141   143    1
  149   127   144    1
  150   141   144    1
  151   144   145    1
  152   144   146    1
  153   139   147    1
  154   147   148    1
@<TRIPOS>SUBSTRUCTURE
       1 MOL1            1 RESIDUE      1      MOL     
       2 MOL1          148 RESIDUE      1      MOL     
@<SCITEGIC>MOL_PROPERTY
VM2 Rank
SciTegic.value.IntegerValue
8

@<SCITEGIC>MOL_PROPERTY
Conf_Id
SciTegic.value.IntegerValue
15778

@<SCITEGIC>MOL_PROPERTY
Probability
SciTegic.value.DoubleValue
1.25

@<SCITEGIC>MOL_PROPERTY
Sum Probability
SciTegic.value.DoubleValue
14.84

@<SCITEGIC>MOL_PROPERTY
Delta G
SciTegic.value.DoubleValue
0.396

@<SCITEGIC>MOL_PROPERTY
G
SciTegic.value.DoubleValue
563.407

@<SCITEGIC>MOL_PROPERTY
E
SciTegic.value.DoubleValue
368.334

@<SCITEGIC>MOL_PROPERTY
-TS
SciTegic.value.DoubleValue
195.073

@<SCITEGIC>MOL_PROPERTY
U+W
SciTegic.value.DoubleValue
237.775

@<SCITEGIC>MOL_PROPERTY
U
SciTegic.value.DoubleValue
269.219

@<SCITEGIC>MOL_PROPERTY
W
SciTegic.value.DoubleValue
-31.444

@<SCITEGIC>MOL_PROPERTY
W(PB)
SciTegic.value.DoubleValue
-37.617

@<SCITEGIC>MOL_PROPERTY
W(SA)
SciTegic.value.DoubleValue
6.173

@<SCITEGIC>MOL_PROPERTY
Valence
SciTegic.value.DoubleValue
154.777

@<SCITEGIC>MOL_PROPERTY
Coulomb
SciTegic.value.DoubleValue
141.655

@<SCITEGIC>MOL_PROPERTY
VdW
SciTegic.value.DoubleValue
-27.213

@<SCITEGIC>MOL_PROPERTY
VdW6
SciTegic.value.DoubleValue
-177.497

@<SCITEGIC>MOL_PROPERTY
VdW12
SciTegic.value.DoubleValue
150.283

@<SCITEGIC>MOL_PROPERTY
Bond
SciTegic.value.DoubleValue
4.141

@<SCITEGIC>MOL_PROPERTY
Angle
SciTegic.value.DoubleValue
11.814

@<SCITEGIC>MOL_PROPERTY
Pdih
SciTegic.value.DoubleValue
138.822

@<SCITEGIC>MOL_PROPERTY
Idih
SciTegic.value.DoubleValue
0.000

@<SCITEGIC>MOL_PROPERTY
Tether
SciTegic.value.DoubleValue
0.000

