@<TRIPOS>MOLECULE
CD_guest-s11_vm2_rndm.mol2 : vm2 host+ligand conformer 1
         146         151           2
SMALL
USER_CHARGES
 
@<TRIPOS>ATOM
       1    C1      16.167831   14.988381   20.623944 C.3        1 MOL1         0.2972
       2    H1      15.107133   14.876520   20.364261 H          1 MOL1         0.0751
       3    O1      16.508450   16.363825   20.901050 O.3        1 MOL1        -0.3740
       4    C2      16.551592   14.100157   21.834756 C.3        1 MOL1         0.1003
       5    H2      16.422623   13.056131   21.520517 H          1 MOL1         0.0783
       6    O2      15.712893   14.344154   22.973077 O.3        1 MOL1        -0.5519
       7    H3      15.867182   15.282130   23.251332 H          1 MOL1         0.3769
       8    C3      18.041510   14.306053   22.199127 C.3        1 MOL1         0.1053
       9    H4      18.158288   15.331105   22.578524 H          1 MOL1         0.0783
      10    O3      18.401372   13.368318   23.219738 O.3        1 MOL1        -0.5519
      11    H5      17.625063   13.340028   23.824512 H          1 MOL1         0.3769
      12    C4      18.967069   14.142097   20.958865 C.3        1 MOL1         0.1018
      13    H6      19.123938   13.074593   20.753942 H          1 MOL1         0.0783
      14    C5      18.411262   14.816944   19.674239 C.3        1 MOL1         0.1043
      15    H7      18.578560   15.897394   19.747613 H          1 MOL1         0.0783
      16    O4      16.995274   14.546082   19.529218 O.3        1 MOL1        -0.3740
      17    C6      19.122350   14.310997   18.402394 C.3        1 MOL1         0.0138
      18    H8      18.911398   13.241471   18.269179 H          1 MOL1         0.0794
      19    H9      20.207747   14.425117   18.526054 H          1 MOL1         0.0794
      20    O5      18.679729   15.055857   17.265904 O.3        1 MOL1        -0.5486
      21    H10     17.698796   14.992550   17.264324 H          1 MOL1         0.3769
      22    C7      15.028453   20.094803   21.807015 C.3        1 MOL1         0.2972
      23    H11     14.425531   20.968286   22.085141 H          1 MOL1         0.0751
      24    O6      16.300240   20.481572   21.244734 O.3        1 MOL1        -0.3740
      25    C8      15.280693   19.200452   23.047147 C.3        1 MOL1         0.1003
      26    H12     14.299069   18.881436   23.421118 H          1 MOL1         0.0783
      27    O7      15.971043   19.919102   24.082530 O.3        1 MOL1        -0.5519
      28    H13     15.839065   20.881429   23.903980 H          1 MOL1         0.3769
      29    C9      16.085286   17.938779   22.660737 C.3        1 MOL1         0.1053
      30    H14     17.096693   18.259084   22.388431 H          1 MOL1         0.0783
      31    O8      16.153458   17.068146   23.792817 O.3        1 MOL1        -0.5519
      32    H15     16.390149   17.658371   24.543645 H          1 MOL1         0.3769
      33    C10     15.470413   17.201857   21.442425 C.3        1 MOL1         0.1018
      34    H16     14.602616   16.619698   21.780080 H          1 MOL1         0.0783
      35    C11     15.052923   18.168645   20.298525 C.3        1 MOL1         0.1043
      36    H17     15.964308   18.524575   19.800903 H          1 MOL1         0.0783
      37    O9      14.322879   19.299576   20.831877 O.3        1 MOL1        -0.3740
      38    C12     14.169199   17.498066   19.223355 C.3        1 MOL1         0.0138
      39    H18     14.748643   16.709708   18.724750 H          1 MOL1         0.0794
      40    H19     13.911482   18.245416   18.460984 H          1 MOL1         0.0794
      41    O10     12.981767   16.946739   19.799747 O.3        1 MOL1        -0.5486
      42    H20     12.522012   17.690682   20.248988 H          1 MOL1         0.3769
      43    C13     18.535367   23.982134   20.849310 C.3        1 MOL1         0.2972
      44    H21     18.896046   24.988203   20.598598 H          1 MOL1         0.0751
      45    O11     19.601088   23.131808   21.310671 O.3        1 MOL1        -0.3740
      46    C14     17.446588   24.036058   21.950881 C.3        1 MOL1         0.1003
      47    H22     16.614874   24.633603   21.555437 H          1 MOL1         0.0783
      48    O12     17.939077   24.657742   23.148642 O.3        1 MOL1        -0.5519
      49    H23     18.767030   24.182199   23.413480 H          1 MOL1         0.3769
      50    C15     16.908039   22.617044   22.260892 C.3        1 MOL1         0.1053
      51    H24     17.720093   22.036612   22.720606 H          1 MOL1         0.0783
      52    O13     15.817728   22.736359   23.181518 O.3        1 MOL1        -0.5519
      53    H25     16.098821   23.434876   23.815963 H          1 MOL1         0.3769
      54    C16     16.468422   21.884865   20.959420 C.3        1 MOL1         0.1018
      55    H26     15.537245   22.326777   20.580303 H          1 MOL1         0.0783
      56    C17     17.549955   21.978123   19.850575 C.3        1 MOL1         0.1043
      57    H27     18.409606   21.364614   20.145984 H          1 MOL1         0.0783
      58    O14     17.948604   23.361153   19.686451 O.3        1 MOL1        -0.3740
      59    C18     17.042142   21.471708   18.483547 C.3        1 MOL1         0.0138
      60    H28     16.216214   22.111043   18.144221 H          1 MOL1         0.0794
      61    H29     16.649603   20.453071   18.597760 H          1 MOL1         0.0794
      62    O15     18.108375   21.479884   17.529665 O.3        1 MOL1        -0.5486
      63    H30     18.463062   22.396995   17.534993 H          1 MOL1         0.3769
      64    C19     23.593460   22.888984   22.066011 C.3        1 MOL1         0.2972
      65    H31     24.664858   22.993717   22.280644 H          1 MOL1         0.0751
      66    O16     23.255639   21.550843   21.645442 O.3        1 MOL1        -0.3740
      67    C20     22.757903   23.241581   23.320883 C.3        1 MOL1         0.1003
      68    H32     22.938741   24.299553   23.551527 H          1 MOL1         0.0783
      69    O17     23.144621   22.439377   24.447804 O.3        1 MOL1        -0.5519
      70    H33     23.727175   21.716359   24.106515 H          1 MOL1         0.3769
      71    C21     21.251086   23.064079   23.031004 C.3        1 MOL1         0.1053
      72    H34     21.066848   21.991144   22.912294 H          1 MOL1         0.0783
      73    O18     20.488525   23.551971   24.138561 O.3        1 MOL1        -0.5519
      74    H35     20.936641   23.183832   24.932986 H          1 MOL1         0.3769
      75    C22     20.812786   23.785202   21.729325 C.3        1 MOL1         0.1018
      76    H36     20.650421   24.846903   21.958757 H          1 MOL1         0.0783
      77    C23     21.824180   23.638130   20.553996 C.3        1 MOL1         0.1043
      78    H37     21.699933   22.635138   20.124869 H          1 MOL1         0.0783
      79    O19     23.187962   23.796585   21.021400 O.3        1 MOL1        -0.3740
      80    C24     21.595609   24.654558   19.413378 C.3        1 MOL1         0.0138
      81    H38     20.615485   24.466429   18.955764 H          1 MOL1         0.0794
      82    H39     22.354120   24.489813   18.636367 H          1 MOL1         0.0794
      83    O20     21.664666   25.998798   19.897152 O.3        1 MOL1        -0.5486
      84    H40     22.551266   26.098523   20.310240 H          1 MOL1         0.3769
      85    C25     24.886514   17.818065   20.888147 C.3        1 MOL1         0.2972
      86    H41     25.525302   16.973924   20.598205 H          1 MOL1         0.0751
      87    O21     23.524457   17.393270   21.105800 O.3        1 MOL1        -0.3740
      88    C26     25.442849   18.528225   22.155142 C.3        1 MOL1         0.1003
      89    H42     26.445689   18.894812   21.900028 H          1 MOL1         0.0783
      90    O22     25.549348   17.639247   23.276993 O.3        1 MOL1        -0.5519
      91    H43     24.626978   17.367195   23.514651 H          1 MOL1         0.3769
      92    C27     24.573041   19.751616   22.528239 C.3        1 MOL1         0.1053
      93    H44     23.591197   19.381452   22.854235 H          1 MOL1         0.0783
      94    O23     25.196733   20.471388   23.596043 O.3        1 MOL1        -0.5519
      95    H45     25.517886   19.780368   24.218460 H          1 MOL1         0.3769
      96    C28     24.356872   20.687492   21.311791 C.3        1 MOL1         0.1018
      97    H46     25.275976   21.252506   21.106173 H          1 MOL1         0.0783
      98    C29     23.950348   19.911093   20.032593 C.3        1 MOL1         0.1043
      99    H47     22.923783   19.548801   20.155141 H          1 MOL1         0.0783
     100    O24     24.859794   18.800478   19.831162 O.3        1 MOL1        -0.3740
     101    C30     23.996041   20.789850   18.766247 C.3        1 MOL1         0.0138
     102    H48     25.039604   21.042384   18.535245 H          1 MOL1         0.0794
     103    H49     23.460321   21.728843   18.953729 H          1 MOL1         0.0794
     104    O25     23.389037   20.095409   17.674252 O.3        1 MOL1        -0.5486
     105    H50     23.863360   19.238313   17.596696 H          1 MOL1         0.3769
     106    C31     21.208897   14.054319   21.949765 C.3        1 MOL1         0.2972
     107    H51     20.829397   13.069652   22.251613 H          1 MOL1         0.0751
     108    O26     20.211156   14.813541   21.238699 O.3        1 MOL1        -0.3740
     109    C32     21.675767   14.859421   23.192064 C.3        1 MOL1         0.1003
     110    H52     22.473150   14.277804   23.672809 H          1 MOL1         0.0783
     111    O27     20.609329   15.064017   24.132778 O.3        1 MOL1        -0.5519
     112    H53     19.906484   14.401236   23.928174 H          1 MOL1         0.3769
     113    C33     22.260968   16.225655   22.772127 C.3        1 MOL1         0.1053
     114    H54     21.437571   16.826862   22.369166 H          1 MOL1         0.0783
     115    O28     22.816698   16.870700   23.922350 O.3        1 MOL1        -0.5519
     116    H55     22.132738   16.758577   24.620431 H          1 MOL1         0.3769
     117    C34     23.334737   16.078669   21.666691 C.3        1 MOL1         0.1018
     118    H56     24.254729   15.686589   22.119452 H          1 MOL1         0.0783
     119    C35     22.876271   15.136462   20.518294 C.3        1 MOL1         0.1043
     120    H57     22.095489   15.649247   19.940759 H          1 MOL1         0.0783
     121    O29     22.346723   13.905424   21.073291 O.3        1 MOL1        -0.3740
     122    C36     24.009297   14.761892   19.536952 C.3        1 MOL1         0.0138
     123    H58     24.339673   15.666761   19.010003 H          1 MOL1         0.0794
     124    H59     23.608474   14.073339   18.781035 H          1 MOL1         0.0794
     125    O30     25.111619   14.160178   20.221832 O.3        1 MOL1        -0.5486
     126    H60     24.751511   13.371734   20.685710 H          1 MOL1         0.3769
     127    N1      19.294928   18.861397   16.879169 N.4        1 MOL1        -0.5919
     128    H1      18.944386   19.834141   16.893936 H          1 MOL1         0.3682
     129    H2      20.267866   18.889756   16.559589 H          1 MOL1         0.3682
     130    H3      18.751654   18.354513   16.173719 H          1 MOL1         0.3682
     131    C1      19.164495   18.232750   18.248597 C.3        1 MOL1         0.0252
     132    H4      19.427814   17.174593   18.172209 H          1 MOL1         0.0971
     133    H5      18.114480   18.308218   18.543422 H          1 MOL1         0.0971
     134    C2      20.050707   18.917005   19.301943 C.3        1 MOL1        -0.1369
     135    H6      21.086831   18.573096   19.186525 H          1 MOL1         0.0997
     136    H7      20.053366   20.000949   19.125315 H          1 MOL1         0.0997
     137    C3      19.545001   18.637888   20.732758 C.3        1 MOL1        -0.1329
     138    H8      19.596700   17.563314   20.952265 H          1 MOL1         0.0997
     139    H9      18.488533   18.926631   20.796083 H          1 MOL1         0.0997
     140    C4      20.350825   19.425065   21.786162 C.3        1 MOL1        -0.1305
     141    H10     21.394941   19.087894   21.785465 H          1 MOL1         0.0997
     142    H11     20.362680   20.487024   21.511896 H          1 MOL1         0.0997
     143    C5      19.763518   19.266650   23.204274 C.3        1 MOL1        -0.2320
     144    H12     18.755867   19.697939   23.264611 H          1 MOL1         0.1008
     145    H13     19.701940   18.209223   23.494215 H          1 MOL1         0.1008
     146    H14     20.391678   19.781567   23.942650 H          1 MOL1         0.1008
@<TRIPOS>BOND
    1     1     2    1
    2     1     3    1
    3     1     4    1
    4     4     5    1
    5     4     6    1
    6     6     7    1
    7     4     8    1
    8     8     9    1
    9     8    10    1
   10    10    11    1
   11     8    12    1
   12    12    13    1
   13    12    14    1
   14    14    15    1
   15     1    16    1
   16    14    16    1
   17    14    17    1
   18    17    18    1
   19    17    19    1
   20    17    20    1
   21    20    21    1
   22    22    23    1
   23    22    24    1
   24    22    25    1
   25    25    26    1
   26    25    27    1
   27    27    28    1
   28    25    29    1
   29    29    30    1
   30    29    31    1
   31    31    32    1
   32     3    33    1
   33    29    33    1
   34    33    34    1
   35    33    35    1
   36    35    36    1
   37    22    37    1
   38    35    37    1
   39    35    38    1
   40    38    39    1
   41    38    40    1
   42    38    41    1
   43    41    42    1
   44    43    44    1
   45    43    45    1
   46    43    46    1
   47    46    47    1
   48    46    48    1
   49    48    49    1
   50    46    50    1
   51    50    51    1
   52    50    52    1
   53    52    53    1
   54    24    54    1
   55    50    54    1
   56    54    55    1
   57    54    56    1
   58    56    57    1
   59    43    58    1
   60    56    58    1
   61    56    59    1
   62    59    60    1
   63    59    61    1
   64    59    62    1
   65    62    63    1
   66    64    65    1
   67    64    66    1
   68    64    67    1
   69    67    68    1
   70    67    69    1
   71    69    70    1
   72    67    71    1
   73    71    72    1
   74    71    73    1
   75    73    74    1
   76    45    75    1
   77    71    75    1
   78    75    76    1
   79    75    77    1
   80    77    78    1
   81    64    79    1
   82    77    79    1
   83    77    80    1
   84    80    81    1
   85    80    82    1
   86    80    83    1
   87    83    84    1
   88    85    86    1
   89    85    87    1
   90    85    88    1
   91    88    89    1
   92    88    90    1
   93    90    91    1
   94    88    92    1
   95    92    93    1
   96    92    94    1
   97    94    95    1
   98    66    96    1
   99    92    96    1
  100    96    97    1
  101    96    98    1
  102    98    99    1
  103    85   100    1
  104    98   100    1
  105    98   101    1
  106   101   102    1
  107   101   103    1
  108   101   104    1
  109   104   105    1
  110   106   107    1
  111    12   108    1
  112   106   108    1
  113   106   109    1
  114   109   110    1
  115   109   111    1
  116   111   112    1
  117   109   113    1
  118   113   114    1
  119   113   115    1
  120   115   116    1
  121    87   117    1
  122   113   117    1
  123   117   118    1
  124   117   119    1
  125   119   120    1
  126   106   121    1
  127   119   121    1
  128   119   122    1
  129   122   123    1
  130   122   124    1
  131   122   125    1
  132   125   126    1
  133   127   128    1
  134   127   129    1
  135   127   130    1
  136   127   131    1
  137   131   132    1
  138   131   133    1
  139   131   134    1
  140   134   135    1
  141   134   136    1
  142   134   137    1
  143   137   138    1
  144   137   139    1
  145   137   140    1
  146   140   141    1
  147   140   142    1
  148   140   143    1
  149   143   144    1
  150   143   145    1
  151   143   146    1
@<TRIPOS>SUBSTRUCTURE
       1 MOL1            1 RESIDUE      1      MOL     
       2 MOL1          146 RESIDUE      1      MOL     
@<SCITEGIC>MOL_PROPERTY
VM2 Rank
SciTegic.value.IntegerValue
1

@<SCITEGIC>MOL_PROPERTY
Conf_Id
SciTegic.value.IntegerValue
11227

@<SCITEGIC>MOL_PROPERTY
Probability
SciTegic.value.DoubleValue
2.43

@<SCITEGIC>MOL_PROPERTY
Sum Probability
SciTegic.value.DoubleValue
2.43

@<SCITEGIC>MOL_PROPERTY
Delta G
SciTegic.value.DoubleValue
0.000

@<SCITEGIC>MOL_PROPERTY
G
SciTegic.value.DoubleValue
547.806

@<SCITEGIC>MOL_PROPERTY
E
SciTegic.value.DoubleValue
354.413

@<SCITEGIC>MOL_PROPERTY
-TS
SciTegic.value.DoubleValue
193.393

@<SCITEGIC>MOL_PROPERTY
U+W
SciTegic.value.DoubleValue
225.642

@<SCITEGIC>MOL_PROPERTY
U
SciTegic.value.DoubleValue
295.440

@<SCITEGIC>MOL_PROPERTY
W
SciTegic.value.DoubleValue
-69.797

@<SCITEGIC>MOL_PROPERTY
W(PB)
SciTegic.value.DoubleValue
-75.736

@<SCITEGIC>MOL_PROPERTY
W(SA)
SciTegic.value.DoubleValue
5.939

@<SCITEGIC>MOL_PROPERTY
Valence
SciTegic.value.DoubleValue
145.580

@<SCITEGIC>MOL_PROPERTY
Coulomb
SciTegic.value.DoubleValue
173.923

@<SCITEGIC>MOL_PROPERTY
VdW
SciTegic.value.DoubleValue
-24.064

@<SCITEGIC>MOL_PROPERTY
VdW6
SciTegic.value.DoubleValue
-173.765

@<SCITEGIC>MOL_PROPERTY
VdW12
SciTegic.value.DoubleValue
149.701

@<SCITEGIC>MOL_PROPERTY
Bond
SciTegic.value.DoubleValue
4.331

@<SCITEGIC>MOL_PROPERTY
Angle
SciTegic.value.DoubleValue
9.927

@<SCITEGIC>MOL_PROPERTY
Pdih
SciTegic.value.DoubleValue
131.323

@<SCITEGIC>MOL_PROPERTY
Idih
SciTegic.value.DoubleValue
0.000

@<SCITEGIC>MOL_PROPERTY
Tether
SciTegic.value.DoubleValue
0.000

@<TRIPOS>MOLECULE
CD_guest-s11_vm2_rndm.mol2 : vm2 host+ligand conformer 2
         146         151           2
SMALL
USER_CHARGES
 
@<TRIPOS>ATOM
       1    C1      16.183336   14.998533   20.571630 C.3        1 MOL1         0.2972
       2    H1      15.128259   14.883880   20.291107 H          1 MOL1         0.0751
       3    O1      16.511668   16.372918   20.867770 O.3        1 MOL1        -0.3740
       4    C2      16.549306   14.100544   21.781166 C.3        1 MOL1         0.1003
       5    H2      16.432146   13.058866   21.454767 H          1 MOL1         0.0783
       6    O2      15.688207   14.328847   22.905885 O.3        1 MOL1        -0.5519
       7    H3      15.832445   15.264705   23.196287 H          1 MOL1         0.3769
       8    C3      18.031177   14.311380   22.174472 C.3        1 MOL1         0.1053
       9    H4      18.136768   15.335334   22.560016 H          1 MOL1         0.0783
      10    O3      18.378225   13.371838   23.197836 O.3        1 MOL1        -0.5519
      11    H5      17.591746   13.337178   23.788920 H          1 MOL1         0.3769
      12    C4      18.977693   14.156955   20.949227 C.3        1 MOL1         0.1018
      13    H6      19.135919   13.091322   20.735746 H          1 MOL1         0.0783
      14    C5      18.445224   14.847406   19.663339 C.3        1 MOL1         0.1043
      15    H7      18.607174   15.927414   19.755269 H          1 MOL1         0.0783
      16    O4      17.033420   14.572440   19.487762 O.3        1 MOL1        -0.3740
      17    C6      19.182712   14.362008   18.398579 C.3        1 MOL1         0.0138
      18    H8      18.975097   13.294733   18.243826 H          1 MOL1         0.0794
      19    H9      20.265245   14.474287   18.546256 H          1 MOL1         0.0794
      20    O5      18.763346   15.125307   17.265514 O.3        1 MOL1        -0.5486
      21    H10     17.782831   15.060449   17.241339 H          1 MOL1         0.3769
      22    C7      14.998843   20.087252   21.786870 C.3        1 MOL1         0.2972
      23    H11     14.386588   20.954847   22.062923 H          1 MOL1         0.0751
      24    O6      16.278712   20.486009   21.251489 O.3        1 MOL1        -0.3740
      25    C8      15.231783   19.179416   23.021451 C.3        1 MOL1         0.1003
      26    H12     14.244686   18.851268   23.372424 H          1 MOL1         0.0783
      27    O7      15.898754   19.887081   24.079247 O.3        1 MOL1        -0.5519
      28    H13     15.761667   20.850758   23.912825 H          1 MOL1         0.3769
      29    C9      16.049825   17.926465   22.636166 C.3        1 MOL1         0.1053
      30    H14     17.064514   18.254922   22.386355 H          1 MOL1         0.0783
      31    O8      16.101632   17.044158   23.760015 O.3        1 MOL1        -0.5519
      32    H15     16.320118   17.627952   24.521362 H          1 MOL1         0.3769
      33    C10     15.460357   17.200404   21.399025 C.3        1 MOL1         0.1018
      34    H16     14.589134   16.610918   21.714416 H          1 MOL1         0.0783
      35    C11     15.059576   18.177873   20.258195 C.3        1 MOL1         0.1043
      36    H17     15.978220   18.543297   19.781157 H          1 MOL1         0.0783
      37    O9      14.314812   19.299713   20.790363 O.3        1 MOL1        -0.3740
      38    C12     14.198618   17.515155   19.159920 C.3        1 MOL1         0.0138
      39    H18     14.790519   16.734527   18.663786 H          1 MOL1         0.0794
      40    H19     13.951722   18.269510   18.400877 H          1 MOL1         0.0794
      41    O10     13.003186   16.952835   19.708509 O.3        1 MOL1        -0.5486
      42    H20     12.532100   17.690040   20.157116 H          1 MOL1         0.3769
      43    C13     18.512463   24.001974   20.979570 C.3        1 MOL1         0.2972
      44    H21     18.868932   25.015502   20.754606 H          1 MOL1         0.0751
      45    O11     19.574678   23.156277   21.457374 O.3        1 MOL1        -0.3740
      46    C14     17.400643   24.029728   22.060564 C.3        1 MOL1         0.1003
      47    H22     16.576017   24.639662   21.668505 H          1 MOL1         0.0783
      48    O12     17.876733   24.602839   23.291619 O.3        1 MOL1        -0.5519
      49    H23     18.007007   25.563090   23.139766 H          1 MOL1         0.3769
      50    C15     16.856608   22.603523   22.323029 C.3        1 MOL1         0.1053
      51    H24     17.658270   22.015927   22.791516 H          1 MOL1         0.0783
      52    O13     15.744870   22.704567   23.219736 O.3        1 MOL1        -0.5519
      53    H25     16.033538   23.356684   23.898608 H          1 MOL1         0.3769
      54    C16     16.452436   21.895005   20.997628 C.3        1 MOL1         0.1018
      55    H26     15.531349   22.342980   20.601473 H          1 MOL1         0.0783
      56    C17     17.564956   22.010510   19.922343 C.3        1 MOL1         0.1043
      57    H27     18.419896   21.397692   20.232673 H          1 MOL1         0.0783
      58    O14     17.959005   23.397723   19.792174 O.3        1 MOL1        -0.3740
      59    C18     17.099534   21.523936   18.533263 C.3        1 MOL1         0.0138
      60    H28     16.275385   22.160050   18.183720 H          1 MOL1         0.0794
      61    H29     16.716007   20.499023   18.618609 H          1 MOL1         0.0794
      62    O15     18.190431   21.562040   17.608359 O.3        1 MOL1        -0.5486
      63    H30     18.526648   22.485499   17.631825 H          1 MOL1         0.3769
      64    C19     23.619599   22.903448   21.959921 C.3        1 MOL1         0.2972
      65    H31     24.700133   23.028531   22.105348 H          1 MOL1         0.0751
      66    O16     23.273806   21.539409   21.642016 O.3        1 MOL1        -0.3740
      67    C20     22.859319   23.330623   23.238709 C.3        1 MOL1         0.1003
      68    H32     23.057524   24.398452   23.399094 H          1 MOL1         0.0783
      69    O17     23.307024   22.589393   24.381824 O.3        1 MOL1        -0.5519
      70    H33     22.662022   22.811126   25.090527 H          1 MOL1         0.3769
      71    C21     21.336564   23.149966   23.053657 C.3        1 MOL1         0.1053
      72    H34     21.131969   22.073682   23.009252 H          1 MOL1         0.0783
      73    O18     20.641618   23.723296   24.167606 O.3        1 MOL1        -0.5519
      74    H35     19.685319   23.753153   23.921721 H          1 MOL1         0.3769
      75    C22     20.829584   23.799394   21.740597 C.3        1 MOL1         0.1018
      76    H36     20.710467   24.877420   21.912543 H          1 MOL1         0.0783
      77    C23     21.757521   23.552731   20.515082 C.3        1 MOL1         0.1043
      78    H37     21.602926   22.520905   20.172813 H          1 MOL1         0.0783
      79    O19     23.147755   23.739020   20.883123 O.3        1 MOL1        -0.3740
      80    C24     21.460531   24.483749   19.318459 C.3        1 MOL1         0.0138
      81    H38     20.454923   24.267410   18.935205 H          1 MOL1         0.0794
      82    H39     22.170692   24.258922   18.511390 H          1 MOL1         0.0794
      83    O20     21.558574   25.859694   19.697078 O.3        1 MOL1        -0.5486
      84    H40     22.469855   25.986460   20.043610 H          1 MOL1         0.3769
      85    C25     24.886236   17.799838   20.903101 C.3        1 MOL1         0.2972
      86    H41     25.518969   16.951893   20.611330 H          1 MOL1         0.0751
      87    O21     23.526544   17.378713   21.143206 O.3        1 MOL1        -0.3740
      88    C26     25.462603   18.514317   22.159543 C.3        1 MOL1         0.1003
      89    H42     26.468831   18.864012   21.895600 H          1 MOL1         0.0783
      90    O22     25.566633   17.609600   23.270051 O.3        1 MOL1        -0.5519
      91    H43     24.642588   17.417914   23.567044 H          1 MOL1         0.3769
      92    C27     24.613770   19.759330   22.530562 C.3        1 MOL1         0.1053
      93    H44     23.640250   19.405260   22.896540 H          1 MOL1         0.0783
      94    O23     25.263952   20.527093   23.550727 O.3        1 MOL1        -0.5519
      95    H45     24.600970   21.185720   23.874287 H          1 MOL1         0.3769
      96    C28     24.366505   20.668955   21.298193 C.3        1 MOL1         0.1018
      97    H46     25.281303   21.227998   21.059509 H          1 MOL1         0.0783
      98    C29     23.929723   19.874684   20.042685 C.3        1 MOL1         0.1043
      99    H47     22.910202   19.509333   20.202842 H          1 MOL1         0.0783
     100    O24     24.842371   18.769518   19.835928 O.3        1 MOL1        -0.3740
     101    C30     23.930083   20.732429   18.760959 C.3        1 MOL1         0.0138
     102    H48     24.964389   20.983277   18.490026 H          1 MOL1         0.0794
     103    H49     23.398492   21.673197   18.950796 H          1 MOL1         0.0794
     104    O25     23.286871   20.018732   17.702123 O.3        1 MOL1        -0.5486
     105    H50     23.766264   19.165410   17.616112 H          1 MOL1         0.3769
     106    C31     21.202126   14.051702   21.973705 C.3        1 MOL1         0.2972
     107    H51     20.811214   13.070207   22.271256 H          1 MOL1         0.0751
     108    O26     20.216930   14.822853   21.258378 O.3        1 MOL1        -0.3740
     109    C32     21.665578   14.850974   23.220407 C.3        1 MOL1         0.1003
     110    H52     22.455949   14.263907   23.706062 H          1 MOL1         0.0783
     111    O27     20.591667   15.059070   24.152128 O.3        1 MOL1        -0.5519
     112    H53     19.882814   14.407493   23.932561 H          1 MOL1         0.3769
     113    C33     22.261511   16.214421   22.805758 C.3        1 MOL1         0.1053
     114    H54     21.443411   16.821707   22.400735 H          1 MOL1         0.0783
     115    O28     22.816702   16.855226   23.958838 O.3        1 MOL1        -0.5519
     116    H55     22.129880   16.747416   24.654478 H          1 MOL1         0.3769
     117    C34     23.338650   16.064217   21.703636 C.3        1 MOL1         0.1018
     118    H56     24.257588   15.674119   22.160023 H          1 MOL1         0.0783
     119    C35     22.885200   15.121503   20.553258 C.3        1 MOL1         0.1043
     120    H57     22.111742   15.637306   19.968657 H          1 MOL1         0.0783
     121    O29     22.344764   13.894276   21.105574 O.3        1 MOL1        -0.3740
     122    C36     24.022646   14.738522   19.580273 C.3        1 MOL1         0.0138
     123    H58     24.359803   15.639639   19.051306 H          1 MOL1         0.0794
     124    H59     23.623358   14.048633   18.824759 H          1 MOL1         0.0794
     125    O30     25.118272   14.134645   20.273808 O.3        1 MOL1        -0.5486
     126    H60     24.751734   13.350608   20.740093 H          1 MOL1         0.3769
     127    N1      19.379689   18.948404   16.952320 N.4        1 MOL1        -0.5919
     128    H1      20.363281   18.964135   16.664849 H          1 MOL1         0.3682
     129    H2      18.850932   18.456218   16.225809 H          1 MOL1         0.3682
     130    H3      19.044559   19.926552   16.964802 H          1 MOL1         0.3682
     131    C1      19.196199   18.312326   18.312129 C.3        1 MOL1         0.0252
     132    H4      19.430475   17.247646   18.232375 H          1 MOL1         0.0971
     133    H5      18.142301   18.416938   18.583073 H          1 MOL1         0.0971
     134    C2      20.078975   18.962036   19.389481 C.3        1 MOL1        -0.1369
     135    H6      21.106553   18.592055   19.284038 H          1 MOL1         0.0997
     136    H7      20.111159   20.047774   19.226879 H          1 MOL1         0.0997
     137    C3      19.547283   18.676655   20.809400 C.3        1 MOL1        -0.1329
     138    H8      19.580558   17.598994   21.018006 H          1 MOL1         0.0997
     139    H9      18.494061   18.979037   20.859078 H          1 MOL1         0.0997
     140    C4      20.346232   19.442654   21.884678 C.3        1 MOL1        -0.1305
     141    H10     21.390139   19.103443   21.887959 H          1 MOL1         0.0997
     142    H11     20.363523   20.510608   21.633773 H          1 MOL1         0.0997
     143    C5      19.743686   19.257959   23.293019 C.3        1 MOL1        -0.2320
     144    H12     19.692064   18.195841   23.567497 H          1 MOL1         0.1008
     145    H13     20.356833   19.770691   24.045430 H          1 MOL1         0.1008
     146    H14     18.729767   19.675481   23.346880 H          1 MOL1         0.1008
@<TRIPOS>BOND
    1     1     2    1
    2     1     3    1
    3     1     4    1
    4     4     5    1
    5     4     6    1
    6     6     7    1
    7     4     8    1
    8     8     9    1
    9     8    10    1
   10    10    11    1
   11     8    12    1
   12    12    13    1
   13    12    14    1
   14    14    15    1
   15     1    16    1
   16    14    16    1
   17    14    17    1
   18    17    18    1
   19    17    19    1
   20    17    20    1
   21    20    21    1
   22    22    23    1
   23    22    24    1
   24    22    25    1
   25    25    26    1
   26    25    27    1
   27    27    28    1
   28    25    29    1
   29    29    30    1
   30    29    31    1
   31    31    32    1
   32     3    33    1
   33    29    33    1
   34    33    34    1
   35    33    35    1
   36    35    36    1
   37    22    37    1
   38    35    37    1
   39    35    38    1
   40    38    39    1
   41    38    40    1
   42    38    41    1
   43    41    42    1
   44    43    44    1
   45    43    45    1
   46    43    46    1
   47    46    47    1
   48    46    48    1
   49    48    49    1
   50    46    50    1
   51    50    51    1
   52    50    52    1
   53    52    53    1
   54    24    54    1
   55    50    54    1
   56    54    55    1
   57    54    56    1
   58    56    57    1
   59    43    58    1
   60    56    58    1
   61    56    59    1
   62    59    60    1
   63    59    61    1
   64    59    62    1
   65    62    63    1
   66    64    65    1
   67    64    66    1
   68    64    67    1
   69    67    68    1
   70    67    69    1
   71    69    70    1
   72    67    71    1
   73    71    72    1
   74    71    73    1
   75    73    74    1
   76    45    75    1
   77    71    75    1
   78    75    76    1
   79    75    77    1
   80    77    78    1
   81    64    79    1
   82    77    79    1
   83    77    80    1
   84    80    81    1
   85    80    82    1
   86    80    83    1
   87    83    84    1
   88    85    86    1
   89    85    87    1
   90    85    88    1
   91    88    89    1
   92    88    90    1
   93    90    91    1
   94    88    92    1
   95    92    93    1
   96    92    94    1
   97    94    95    1
   98    66    96    1
   99    92    96    1
  100    96    97    1
  101    96    98    1
  102    98    99    1
  103    85   100    1
  104    98   100    1
  105    98   101    1
  106   101   102    1
  107   101   103    1
  108   101   104    1
  109   104   105    1
  110   106   107    1
  111    12   108    1
  112   106   108    1
  113   106   109    1
  114   109   110    1
  115   109   111    1
  116   111   112    1
  117   109   113    1
  118   113   114    1
  119   113   115    1
  120   115   116    1
  121    87   117    1
  122   113   117    1
  123   117   118    1
  124   117   119    1
  125   119   120    1
  126   106   121    1
  127   119   121    1
  128   119   122    1
  129   122   123    1
  130   122   124    1
  131   122   125    1
  132   125   126    1
  133   127   128    1
  134   127   129    1
  135   127   130    1
  136   127   131    1
  137   131   132    1
  138   131   133    1
  139   131   134    1
  140   134   135    1
  141   134   136    1
  142   134   137    1
  143   137   138    1
  144   137   139    1
  145   137   140    1
  146   140   141    1
  147   140   142    1
  148   140   143    1
  149   143   144    1
  150   143   145    1
  151   143   146    1
@<TRIPOS>SUBSTRUCTURE
       1 MOL1            1 RESIDUE      1      MOL     
       2 MOL1          146 RESIDUE      1      MOL     
@<SCITEGIC>MOL_PROPERTY
VM2 Rank
SciTegic.value.IntegerValue
2

@<SCITEGIC>MOL_PROPERTY
Conf_Id
SciTegic.value.IntegerValue
22882

@<SCITEGIC>MOL_PROPERTY
Probability
SciTegic.value.DoubleValue
1.62

@<SCITEGIC>MOL_PROPERTY
Sum Probability
SciTegic.value.DoubleValue
4.04

@<SCITEGIC>MOL_PROPERTY
Delta G
SciTegic.value.DoubleValue
0.243

@<SCITEGIC>MOL_PROPERTY
G
SciTegic.value.DoubleValue
548.050

@<SCITEGIC>MOL_PROPERTY
E
SciTegic.value.DoubleValue
354.941

@<SCITEGIC>MOL_PROPERTY
-TS
SciTegic.value.DoubleValue
193.108

@<SCITEGIC>MOL_PROPERTY
U+W
SciTegic.value.DoubleValue
226.170

@<SCITEGIC>MOL_PROPERTY
U
SciTegic.value.DoubleValue
301.619

@<SCITEGIC>MOL_PROPERTY
W
SciTegic.value.DoubleValue
-75.449

@<SCITEGIC>MOL_PROPERTY
W(PB)
SciTegic.value.DoubleValue
-81.397

@<SCITEGIC>MOL_PROPERTY
W(SA)
SciTegic.value.DoubleValue
5.948

@<SCITEGIC>MOL_PROPERTY
Valence
SciTegic.value.DoubleValue
143.955

@<SCITEGIC>MOL_PROPERTY
Coulomb
SciTegic.value.DoubleValue
182.214

@<SCITEGIC>MOL_PROPERTY
VdW
SciTegic.value.DoubleValue
-24.550

@<SCITEGIC>MOL_PROPERTY
VdW6
SciTegic.value.DoubleValue
-172.988

@<SCITEGIC>MOL_PROPERTY
VdW12
SciTegic.value.DoubleValue
148.438

@<SCITEGIC>MOL_PROPERTY
Bond
SciTegic.value.DoubleValue
4.265

@<SCITEGIC>MOL_PROPERTY
Angle
SciTegic.value.DoubleValue
9.743

@<SCITEGIC>MOL_PROPERTY
Pdih
SciTegic.value.DoubleValue
129.947

@<SCITEGIC>MOL_PROPERTY
Idih
SciTegic.value.DoubleValue
0.000

@<SCITEGIC>MOL_PROPERTY
Tether
SciTegic.value.DoubleValue
0.000

@<TRIPOS>MOLECULE
CD_guest-s11_vm2_rndm.mol2 : vm2 host+ligand conformer 3
         146         151           2
SMALL
USER_CHARGES
 
@<TRIPOS>ATOM
       1    C1      16.166298   14.926335   20.702370 C.3        1 MOL1         0.2972
       2    H1      15.106507   14.796371   20.449969 H          1 MOL1         0.0751
       3    O1      16.490557   16.310987   20.956975 O.3        1 MOL1        -0.3740
       4    C2      16.566416   14.053155   21.918321 C.3        1 MOL1         0.1003
       5    H2      16.454081   13.005214   21.610659 H          1 MOL1         0.0783
       6    O2      15.722803   14.288741   23.054248 O.3        1 MOL1        -0.5519
       7    H3      15.871558   15.226332   23.336216 H          1 MOL1         0.3769
       8    C3      18.054042   14.284369   22.275848 C.3        1 MOL1         0.1053
       9    H4      18.159251   15.316106   22.640068 H          1 MOL1         0.0783
      10    O3      18.431116   13.365876   23.307599 O.3        1 MOL1        -0.5519
      11    H5      17.658090   13.334730   23.916318 H          1 MOL1         0.3769
      12    C4      18.974549   14.113791   21.032787 C.3        1 MOL1         0.1018
      13    H6      19.139182   13.045283   20.839394 H          1 MOL1         0.0783
      14    C5      18.406254   14.768581   19.743111 C.3        1 MOL1         0.1043
      15    H7      18.563185   15.851421   19.803317 H          1 MOL1         0.0783
      16    O4      16.992166   14.481726   19.607832 O.3        1 MOL1        -0.3740
      17    C6      19.116582   14.254870   18.473974 C.3        1 MOL1         0.0138
      18    H8      18.911837   13.182835   18.351688 H          1 MOL1         0.0794
      19    H9      20.201628   14.376805   18.593032 H          1 MOL1         0.0794
      20    O5      18.666079   14.986069   17.331810 O.3        1 MOL1        -0.5486
      21    H10     17.685143   14.921845   17.336381 H          1 MOL1         0.3769
      22    C7      15.025282   20.045289   21.897402 C.3        1 MOL1         0.2972
      23    H11     14.421659   20.915082   22.185576 H          1 MOL1         0.0751
      24    O6      16.291757   20.438849   21.329295 O.3        1 MOL1        -0.3740
      25    C8      15.287653   19.144211   23.129218 C.3        1 MOL1         0.1003
      26    H12     14.308711   18.828354   23.512761 H          1 MOL1         0.0783
      27    O7      15.992066   19.856677   24.159461 O.3        1 MOL1        -0.5519
      28    H13     15.867233   20.820138   23.981606 H          1 MOL1         0.3769
      29    C9      16.081681   17.879984   22.728317 C.3        1 MOL1         0.1053
      30    H14     17.094311   18.196298   22.455159 H          1 MOL1         0.0783
      31    O8      16.148388   17.003998   23.855660 O.3        1 MOL1        -0.5519
      32    H15     16.394185   17.588851   24.607904 H          1 MOL1         0.3769
      33    C10     15.459139   17.154536   21.504637 C.3        1 MOL1         0.1018
      34    H16     14.582615   16.579619   21.832426 H          1 MOL1         0.0783
      35    C11     15.053955   18.135613   20.369558 C.3        1 MOL1         0.1043
      36    H17     15.966132   18.491843   19.873363 H          1 MOL1         0.0783
      37    O9      14.317096   19.252749   20.923286 O.3        1 MOL1        -0.3740
      38    C12     14.158342   17.472874   19.302952 C.3        1 MOL1         0.0138
      39    H18     13.223803   17.135337   19.770866 H          1 MOL1         0.0794
      40    H19     14.669510   16.591065   18.894895 H          1 MOL1         0.0794
      41    O10     13.887233   18.402577   18.252535 O.3        1 MOL1        -0.5486
      42    H20     13.549602   19.215790   18.690618 H          1 MOL1         0.3769
      43    C13     18.487810   23.953528   20.872546 C.3        1 MOL1         0.2972
      44    H21     18.836518   24.961185   20.611532 H          1 MOL1         0.0751
      45    O11     19.568489   23.111777   21.314507 O.3        1 MOL1        -0.3740
      46    C14     17.419796   24.003103   21.994807 C.3        1 MOL1         0.1003
      47    H22     16.574993   24.590865   21.612692 H          1 MOL1         0.0783
      48    O12     17.928806   24.634895   23.180225 O.3        1 MOL1        -0.5519
      49    H23     18.762245   24.163753   23.435520 H          1 MOL1         0.3769
      50    C15     16.901343   22.580300   22.320636 C.3        1 MOL1         0.1053
      51    H24     17.728747   22.008925   22.764014 H          1 MOL1         0.0783
      52    O13     15.829853   22.689141   23.264427 O.3        1 MOL1        -0.5519
      53    H25     16.117449   23.390321   23.892869 H          1 MOL1         0.3769
      54    C16     16.441420   21.840744   21.030836 C.3        1 MOL1         0.1018
      55    H26     15.498848   22.273122   20.669266 H          1 MOL1         0.0783
      56    C17     17.498574   21.938320   19.899268 C.3        1 MOL1         0.1043
      57    H27     18.368732   21.332468   20.178939 H          1 MOL1         0.0783
      58    O14     17.882975   23.324230   19.723353 O.3        1 MOL1        -0.3740
      59    C18     16.967750   21.423658   18.543840 C.3        1 MOL1         0.0138
      60    H28     16.128861   22.053994   18.219923 H          1 MOL1         0.0794
      61    H29     16.587229   20.401237   18.666635 H          1 MOL1         0.0794
      62    O15     18.015258   21.441751   17.569287 O.3        1 MOL1        -0.5486
      63    H30     18.361051   22.362227   17.567549 H          1 MOL1         0.3769
      64    C19     23.568745   22.888781   22.018621 C.3        1 MOL1         0.2972
      65    H31     24.642605   22.996294   22.219153 H          1 MOL1         0.0751
      66    O16     23.229558   21.550865   21.597915 O.3        1 MOL1        -0.3740
      67    C20     22.748490   23.236120   23.285082 C.3        1 MOL1         0.1003
      68    H32     22.927778   24.294630   23.514480 H          1 MOL1         0.0783
      69    O17     23.152582   22.434694   24.406411 O.3        1 MOL1        -0.5519
      70    H33     23.745247   21.722816   24.059274 H          1 MOL1         0.3769
      71    C21     21.238982   23.052354   23.014613 C.3        1 MOL1         0.1053
      72    H34     21.058482   21.978756   22.896073 H          1 MOL1         0.0783
      73    O18     20.489154   23.533986   24.133496 O.3        1 MOL1        -0.5519
      74    H35     20.950604   23.166932   24.920796 H          1 MOL1         0.3769
      75    C22     20.779906   23.773694   21.720153 C.3        1 MOL1         0.1018
      76    H36     20.612208   24.833624   21.953876 H          1 MOL1         0.0783
      77    C23     21.777547   23.636551   20.531814 C.3        1 MOL1         0.1043
      78    H37     21.652317   22.635037   20.099530 H          1 MOL1         0.0783
      79    O19     23.146595   23.798480   20.982448 O.3        1 MOL1        -0.3740
      80    C24     21.529928   24.657152   19.398958 C.3        1 MOL1         0.0138
      81    H38     20.544412   24.467327   18.953768 H          1 MOL1         0.0794
      82    H39     22.278555   24.498743   18.611123 H          1 MOL1         0.0794
      83    O20     21.600479   25.999473   19.887818 O.3        1 MOL1        -0.5486
      84    H40     22.492028   26.100566   20.289779 H          1 MOL1         0.3769
      85    C25     24.866159   17.818871   20.846220 C.3        1 MOL1         0.2972
      86    H41     25.504116   16.975379   20.552612 H          1 MOL1         0.0751
      87    O21     23.510322   17.389380   21.091190 O.3        1 MOL1        -0.3740
      88    C26     25.440565   18.542663   22.097243 C.3        1 MOL1         0.1003
      89    H42     26.437259   18.911337   21.821843 H          1 MOL1         0.0783
      90    O22     25.570084   17.664226   23.224996 O.3        1 MOL1        -0.5519
      91    H43     24.653080   17.390517   23.480842 H          1 MOL1         0.3769
      92    C27     24.571860   19.765479   22.474711 C.3        1 MOL1         0.1053
      93    H44     23.597718   19.393994   22.821771 H          1 MOL1         0.0783
      94    O23     25.212261   20.496899   23.524558 O.3        1 MOL1        -0.5519
      95    H45     25.549241   19.812359   24.145838 H          1 MOL1         0.3769
      96    C28     24.329228   20.689446   21.253984 C.3        1 MOL1         0.1018
      97    H46     25.241481   21.257323   21.026854 H          1 MOL1         0.0783
      98    C29     23.904344   19.899488   19.989048 C.3        1 MOL1         0.1043
      99    H47     22.881926   19.532861   20.132399 H          1 MOL1         0.0783
     100    O24     24.816169   18.791945   19.781454 O.3        1 MOL1        -0.3740
     101    C30     23.923207   20.767517   18.714637 C.3        1 MOL1         0.0138
     102    H48     24.961084   21.024984   18.464281 H          1 MOL1         0.0794
     103    H49     23.384200   21.704495   18.903062 H          1 MOL1         0.0794
     104    O25     23.303085   20.059679   17.638741 O.3        1 MOL1        -0.5486
     105    H50     23.781083   19.204596   17.561498 H          1 MOL1         0.3769
     106    C31     21.224794   14.049136   22.002208 C.3        1 MOL1         0.2972
     107    H51     20.853353   13.066201   22.319373 H          1 MOL1         0.0751
     108    O26     20.213846   14.798365   21.299533 O.3        1 MOL1        -0.3740
     109    C32     21.705416   14.867968   23.229794 C.3        1 MOL1         0.1003
     110    H52     22.511283   14.294159   23.705740 H          1 MOL1         0.0783
     111    O27     20.649789   15.077353   24.181750 O.3        1 MOL1        -0.5519
     112    H53     19.942910   14.416027   23.986183 H          1 MOL1         0.3769
     113    C33     22.279484   16.232200   22.788293 C.3        1 MOL1         0.1053
     114    H54     21.447873   16.826771   22.392427 H          1 MOL1         0.0783
     115    O28     22.850580   16.889948   23.923727 O.3        1 MOL1        -0.5519
     116    H55     22.177434   16.783455   24.633064 H          1 MOL1         0.3769
     117    C34     23.336701   16.079355   21.667697 C.3        1 MOL1         0.1018
     118    H56     24.265690   15.696560   22.109881 H          1 MOL1         0.0783
     119    C35     22.865770   15.123719   20.535571 C.3        1 MOL1         0.1043
     120    H57     22.074294   15.627324   19.964557 H          1 MOL1         0.0783
     121    O29     22.350069   13.896060   21.110516 O.3        1 MOL1        -0.3740
     122    C36     23.985766   14.744240   19.541244 C.3        1 MOL1         0.0138
     123    H58     24.303955   15.645098   19.000127 H          1 MOL1         0.0794
     124    H59     23.576926   14.046118   18.798510 H          1 MOL1         0.0794
     125    O30     25.101004   14.154613   20.215624 O.3        1 MOL1        -0.5486
     126    H60     24.751560   13.369414   20.692967 H          1 MOL1         0.3769
     127    N1      19.189349   18.820115   16.911024 N.4        1 MOL1        -0.5919
     128    H1      18.838016   19.792575   16.930065 H          1 MOL1         0.3682
     129    H2      20.155763   18.848180   16.572285 H          1 MOL1         0.3682
     130    H3      18.632073   18.311405   16.217899 H          1 MOL1         0.3682
     131    C1      19.085603   18.195045   18.284409 C.3        1 MOL1         0.0252
     132    H4      19.350027   17.137316   18.206258 H          1 MOL1         0.0971
     133    H5      18.040734   18.268886   18.597851 H          1 MOL1         0.0971
     134    C2      19.989429   18.884889   19.319326 C.3        1 MOL1        -0.1369
     135    H6      21.024761   18.545185   19.185363 H          1 MOL1         0.0997
     136    H7      19.984404   19.968314   19.139895 H          1 MOL1         0.0997
     137    C3      19.511766   18.607322   20.760071 C.3        1 MOL1        -0.1329
     138    H8      19.577112   17.534238   20.982963 H          1 MOL1         0.0997
     139    H9      18.453999   18.886690   20.840519 H          1 MOL1         0.0997
     140    C4      20.327981   19.406285   21.796520 C.3        1 MOL1        -0.1305
     141    H10     21.374916   19.078283   21.780494 H          1 MOL1         0.0997
     142    H11     20.325992   20.467063   21.517438 H          1 MOL1         0.0997
     143    C5      19.764616   19.249499   23.224517 C.3        1 MOL1        -0.2320
     144    H12     18.753400   19.670249   23.298098 H          1 MOL1         0.1008
     145    H13     19.718719   18.193156   23.521142 H          1 MOL1         0.1008
     146    H14     20.398579   19.775181   23.950242 H          1 MOL1         0.1008
@<TRIPOS>BOND
    1     1     2    1
    2     1     3    1
    3     1     4    1
    4     4     5    1
    5     4     6    1
    6     6     7    1
    7     4     8    1
    8     8     9    1
    9     8    10    1
   10    10    11    1
   11     8    12    1
   12    12    13    1
   13    12    14    1
   14    14    15    1
   15     1    16    1
   16    14    16    1
   17    14    17    1
   18    17    18    1
   19    17    19    1
   20    17    20    1
   21    20    21    1
   22    22    23    1
   23    22    24    1
   24    22    25    1
   25    25    26    1
   26    25    27    1
   27    27    28    1
   28    25    29    1
   29    29    30    1
   30    29    31    1
   31    31    32    1
   32     3    33    1
   33    29    33    1
   34    33    34    1
   35    33    35    1
   36    35    36    1
   37    22    37    1
   38    35    37    1
   39    35    38    1
   40    38    39    1
   41    38    40    1
   42    38    41    1
   43    41    42    1
   44    43    44    1
   45    43    45    1
   46    43    46    1
   47    46    47    1
   48    46    48    1
   49    48    49    1
   50    46    50    1
   51    50    51    1
   52    50    52    1
   53    52    53    1
   54    24    54    1
   55    50    54    1
   56    54    55    1
   57    54    56    1
   58    56    57    1
   59    43    58    1
   60    56    58    1
   61    56    59    1
   62    59    60    1
   63    59    61    1
   64    59    62    1
   65    62    63    1
   66    64    65    1
   67    64    66    1
   68    64    67    1
   69    67    68    1
   70    67    69    1
   71    69    70    1
   72    67    71    1
   73    71    72    1
   74    71    73    1
   75    73    74    1
   76    45    75    1
   77    71    75    1
   78    75    76    1
   79    75    77    1
   80    77    78    1
   81    64    79    1
   82    77    79    1
   83    77    80    1
   84    80    81    1
   85    80    82    1
   86    80    83    1
   87    83    84    1
   88    85    86    1
   89    85    87    1
   90    85    88    1
   91    88    89    1
   92    88    90    1
   93    90    91    1
   94    88    92    1
   95    92    93    1
   96    92    94    1
   97    94    95    1
   98    66    96    1
   99    92    96    1
  100    96    97    1
  101    96    98    1
  102    98    99    1
  103    85   100    1
  104    98   100    1
  105    98   101    1
  106   101   102    1
  107   101   103    1
  108   101   104    1
  109   104   105    1
  110   106   107    1
  111    12   108    1
  112   106   108    1
  113   106   109    1
  114   109   110    1
  115   109   111    1
  116   111   112    1
  117   109   113    1
  118   113   114    1
  119   113   115    1
  120   115   116    1
  121    87   117    1
  122   113   117    1
  123   117   118    1
  124   117   119    1
  125   119   120    1
  126   106   121    1
  127   119   121    1
  128   119   122    1
  129   122   123    1
  130   122   124    1
  131   122   125    1
  132   125   126    1
  133   127   128    1
  134   127   129    1
  135   127   130    1
  136   127   131    1
  137   131   132    1
  138   131   133    1
  139   131   134    1
  140   134   135    1
  141   134   136    1
  142   134   137    1
  143   137   138    1
  144   137   139    1
  145   137   140    1
  146   140   141    1
  147   140   142    1
  148   140   143    1
  149   143   144    1
  150   143   145    1
  151   143   146    1
@<TRIPOS>SUBSTRUCTURE
       1 MOL1            1 RESIDUE      1      MOL     
       2 MOL1          146 RESIDUE      1      MOL     
@<SCITEGIC>MOL_PROPERTY
VM2 Rank
SciTegic.value.IntegerValue
3

@<SCITEGIC>MOL_PROPERTY
Conf_Id
SciTegic.value.IntegerValue
14956

@<SCITEGIC>MOL_PROPERTY
Probability
SciTegic.value.DoubleValue
1.59

@<SCITEGIC>MOL_PROPERTY
Sum Probability
SciTegic.value.DoubleValue
5.63

@<SCITEGIC>MOL_PROPERTY
Delta G
SciTegic.value.DoubleValue
0.254

@<SCITEGIC>MOL_PROPERTY
G
SciTegic.value.DoubleValue
548.060

@<SCITEGIC>MOL_PROPERTY
E
SciTegic.value.DoubleValue
354.923

@<SCITEGIC>MOL_PROPERTY
-TS
SciTegic.value.DoubleValue
193.137

@<SCITEGIC>MOL_PROPERTY
U+W
SciTegic.value.DoubleValue
226.152

@<SCITEGIC>MOL_PROPERTY
U
SciTegic.value.DoubleValue
294.504

@<SCITEGIC>MOL_PROPERTY
W
SciTegic.value.DoubleValue
-68.352

@<SCITEGIC>MOL_PROPERTY
W(PB)
SciTegic.value.DoubleValue
-74.279

@<SCITEGIC>MOL_PROPERTY
W(SA)
SciTegic.value.DoubleValue
5.927

@<SCITEGIC>MOL_PROPERTY
Valence
SciTegic.value.DoubleValue
146.166

@<SCITEGIC>MOL_PROPERTY
Coulomb
SciTegic.value.DoubleValue
172.651

@<SCITEGIC>MOL_PROPERTY
VdW
SciTegic.value.DoubleValue
-24.313

@<SCITEGIC>MOL_PROPERTY
VdW6
SciTegic.value.DoubleValue
-173.285

@<SCITEGIC>MOL_PROPERTY
VdW12
SciTegic.value.DoubleValue
148.972

@<SCITEGIC>MOL_PROPERTY
Bond
SciTegic.value.DoubleValue
4.310

@<SCITEGIC>MOL_PROPERTY
Angle
SciTegic.value.DoubleValue
9.929

@<SCITEGIC>MOL_PROPERTY
Pdih
SciTegic.value.DoubleValue
131.926

@<SCITEGIC>MOL_PROPERTY
Idih
SciTegic.value.DoubleValue
0.000

@<SCITEGIC>MOL_PROPERTY
Tether
SciTegic.value.DoubleValue
0.000

@<TRIPOS>MOLECULE
CD_guest-s11_vm2_rndm.mol2 : vm2 host+ligand conformer 4
         146         151           2
SMALL
USER_CHARGES
 
@<TRIPOS>ATOM
       1    C1      16.169114   14.994762   20.615414 C.3        1 MOL1         0.2972
       2    H1      15.109144   14.882904   20.352770 H          1 MOL1         0.0751
       3    O1      16.508337   16.369773   20.896149 O.3        1 MOL1        -0.3740
       4    C2      16.550137   14.104461   21.825617 C.3        1 MOL1         0.1003
       5    H2      16.422082   13.060957   21.509282 H          1 MOL1         0.0783
       6    O2      15.708669   14.346400   22.962338 O.3        1 MOL1        -0.5519
       7    H3      15.861641   15.284113   23.242210 H          1 MOL1         0.3769
       8    C3      18.039162   14.309965   22.193896 C.3        1 MOL1         0.1053
       9    H4      18.155062   15.334566   22.574780 H          1 MOL1         0.0783
      10    O3      18.396785   13.371093   23.214247 O.3        1 MOL1        -0.5519
      11    H5      17.619144   13.342097   23.817267 H          1 MOL1         0.3769
      12    C4      18.967356   14.147519   20.955453 C.3        1 MOL1         0.1018
      13    H6      19.123278   13.080291   20.748363 H          1 MOL1         0.0783
      14    C5      18.415132   14.826140   19.671350 C.3        1 MOL1         0.1043
      15    H7      18.582095   15.906406   19.748491 H          1 MOL1         0.0783
      16    O4      16.999607   14.555283   19.521842 O.3        1 MOL1        -0.3740
      17    C6      19.129694   14.324085   18.399909 C.3        1 MOL1         0.0138
      18    H8      18.918713   13.255085   18.262571 H          1 MOL1         0.0794
      19    H9      20.214771   14.437362   18.527039 H          1 MOL1         0.0794
      20    O5      18.690645   15.072890   17.264624 O.3        1 MOL1        -0.5486
      21    H10     17.709714   15.009786   17.259840 H          1 MOL1         0.3769
      22    C7      15.024714   20.098783   21.802551 C.3        1 MOL1         0.2972
      23    H11     14.421157   20.972139   22.079669 H          1 MOL1         0.0751
      24    O6      16.298375   20.485628   21.244610 O.3        1 MOL1        -0.3740
      25    C8      15.272870   19.202713   23.042326 C.3        1 MOL1         0.1003
      26    H12     14.290045   18.882937   23.412475 H          1 MOL1         0.0783
      27    O7      15.959643   19.919741   24.081190 O.3        1 MOL1        -0.5519
      28    H13     15.826758   20.882295   23.904657 H          1 MOL1         0.3769
      29    C9      16.079059   17.941837   22.656711 C.3        1 MOL1         0.1053
      30    H14     17.091239   18.262874   22.388055 H          1 MOL1         0.0783
      31    O8      16.143969   17.069604   23.787756 O.3        1 MOL1        -0.5519
      32    H15     16.377949   17.658881   24.540180 H          1 MOL1         0.3769
      33    C10     15.468191   17.206447   21.435475 C.3        1 MOL1         0.1018
      34    H16     14.599712   16.623329   21.769709 H          1 MOL1         0.0783
      35    C11     15.053644   18.174593   20.291627 C.3        1 MOL1         0.1043
      36    H17     15.966316   18.531284   19.796895 H          1 MOL1         0.0783
      37    O9      14.321982   19.304780   20.824363 O.3        1 MOL1        -0.3740
      38    C12     14.172964   17.505204   19.213221 C.3        1 MOL1         0.0138
      39    H18     14.753911   16.717588   18.715194 H          1 MOL1         0.0794
      40    H19     13.917180   18.253468   18.451096 H          1 MOL1         0.0794
      41    O10     12.984070   16.952930   19.785681 O.3        1 MOL1        -0.5486
      42    H20     12.522925   17.696227   20.234565 H          1 MOL1         0.3769
      43    C13     18.541337   23.982971   20.871001 C.3        1 MOL1         0.2972
      44    H21     18.905425   24.988982   20.625255 H          1 MOL1         0.0751
      45    O11     19.601212   23.129957   21.339632 O.3        1 MOL1        -0.3740
      46    C14     17.448234   24.036033   21.967978 C.3        1 MOL1         0.1003
      47    H22     16.620285   24.638867   21.572699 H          1 MOL1         0.0783
      48    O12     17.940379   24.649016   23.170555 O.3        1 MOL1        -0.5519
      49    H23     18.774947   24.179346   23.425057 H          1 MOL1         0.3769
      50    C15     16.903647   22.617542   22.270111 C.3        1 MOL1         0.1053
      51    H24     17.711253   22.033556   22.733152 H          1 MOL1         0.0783
      52    O13     15.808337   22.737501   23.184700 O.3        1 MOL1        -0.5519
      53    H25     16.088655   23.432266   23.823611 H          1 MOL1         0.3769
      54    C16     16.470042   21.889524   20.964260 C.3        1 MOL1         0.1018
      55    H26     15.541650   22.333826   20.581153 H          1 MOL1         0.0783
      56    C17     17.557970   21.983558   19.861755 C.3        1 MOL1         0.1043
      57    H27     18.414966   21.367967   20.160470 H          1 MOL1         0.0783
      58    O14     17.959982   23.366043   19.703277 O.3        1 MOL1        -0.3740
      59    C18     17.056967   21.481486   18.490626 C.3        1 MOL1         0.0138
      60    H28     16.232040   22.121270   18.149722 H          1 MOL1         0.0794
      61    H29     16.664822   20.462106   18.599507 H          1 MOL1         0.0794
      62    O15     18.127572   21.494087   17.541696 O.3        1 MOL1        -0.5486
      63    H30     18.479694   22.412077   17.550516 H          1 MOL1         0.3769
      64    C19     23.605994   22.891512   22.050483 C.3        1 MOL1         0.2972
      65    H31     24.679217   23.002746   22.252132 H          1 MOL1         0.0751
      66    O16     23.267415   21.545060   21.658177 O.3        1 MOL1        -0.3740
      67    C20     22.783289   23.262047   23.308542 C.3        1 MOL1         0.1003
      68    H32     22.962088   24.324503   23.519535 H          1 MOL1         0.0783
      69    O17     23.186752   22.479217   24.443370 O.3        1 MOL1        -0.5519
      70    H33     23.744434   21.736271   24.103167 H          1 MOL1         0.3769
      71    C21     21.274315   23.073687   23.037595 C.3        1 MOL1         0.1053
      72    H34     21.093020   21.998848   22.930528 H          1 MOL1         0.0783
      73    O18     20.520195   23.569466   24.147801 O.3        1 MOL1        -0.5519
      74    H35     20.979007   23.213502   24.941606 H          1 MOL1         0.3769
      75    C22     20.821884   23.781571   21.734217 C.3        1 MOL1         0.1018
      76    H36     20.669092   24.846104   21.956528 H          1 MOL1         0.0783
      77    C23     21.817263   23.617217   20.547696 C.3        1 MOL1         0.1043
      78    H37     21.690595   22.604303   20.143719 H          1 MOL1         0.0783
      79    O19     23.188055   23.778298   20.993724 O.3        1 MOL1        -0.3740
      80    C24     21.562587   24.600097   19.379862 C.3        1 MOL1         0.0138
      81    H38     20.639189   24.300132   18.866390 H          1 MOL1         0.0794
      82    H39     22.382851   24.503119   18.655994 H          1 MOL1         0.0794
      83    O20     21.451283   25.956624   19.828097 O.3        1 MOL1        -0.5486
      84    H40     21.373433   26.528101   19.033044 H          1 MOL1         0.3769
      85    C25     24.891268   17.811817   20.893425 C.3        1 MOL1         0.2972
      86    H41     25.528613   16.967086   20.602040 H          1 MOL1         0.0751
      87    O21     23.528738   17.388848   21.111528 O.3        1 MOL1        -0.3740
      88    C26     25.449398   18.519603   22.161063 C.3        1 MOL1         0.1003
      89    H42     26.452752   18.884898   21.906137 H          1 MOL1         0.0783
      90    O22     25.554532   17.629121   23.281865 O.3        1 MOL1        -0.5519
      91    H43     24.631741   17.358363   23.519349 H          1 MOL1         0.3769
      92    C27     24.581424   19.743778   22.535677 C.3        1 MOL1         0.1053
      93    H44     23.599056   19.374516   22.861085 H          1 MOL1         0.0783
      94    O23     25.205130   20.462312   23.604284 O.3        1 MOL1        -0.5519
      95    H45     25.522919   19.770916   24.227911 H          1 MOL1         0.3769
      96    C28     24.366662   20.681209   21.320483 C.3        1 MOL1         0.1018
      97    H46     25.286884   21.244494   21.115148 H          1 MOL1         0.0783
      98    C29     23.957034   19.907027   20.041130 C.3        1 MOL1         0.1043
      99    H47     22.930292   19.546025   20.165653 H          1 MOL1         0.0783
     100    O24     24.864787   18.795406   19.837439 O.3        1 MOL1        -0.3740
     101    C30     24.001194   20.786741   18.775375 C.3        1 MOL1         0.0138
     102    H48     25.044678   21.036952   18.541522 H          1 MOL1         0.0794
     103    H49     23.468319   21.726899   18.965090 H          1 MOL1         0.0794
     104    O25     23.389212   20.094635   17.684629 O.3        1 MOL1        -0.5486
     105    H50     23.862070   19.237018   17.604101 H          1 MOL1         0.3769
     106    C31     21.206950   14.053863   21.950183 C.3        1 MOL1         0.2972
     107    H51     20.824799   13.069748   22.250480 H          1 MOL1         0.0751
     108    O26     20.211563   14.816688   21.239736 O.3        1 MOL1        -0.3740
     109    C32     21.674692   14.856162   23.193878 C.3        1 MOL1         0.1003
     110    H52     22.470308   14.272078   23.674554 H          1 MOL1         0.0783
     111    O27     20.607691   15.061817   24.133756 O.3        1 MOL1        -0.5519
     112    H53     19.903058   14.401713   23.926614 H          1 MOL1         0.3769
     113    C33     22.263333   16.221628   22.776172 C.3        1 MOL1         0.1053
     114    H54     21.441533   16.825509   22.373886 H          1 MOL1         0.0783
     115    O28     22.820327   16.863669   23.927480 O.3        1 MOL1        -0.5519
     116    H55     22.135906   16.752316   24.625223 H          1 MOL1         0.3769
     117    C34     23.337102   16.073911   21.670806 C.3        1 MOL1         0.1018
     118    H56     24.256404   15.679964   22.123344 H          1 MOL1         0.0783
     119    C35     22.877546   15.133862   20.521065 C.3        1 MOL1         0.1043
     120    H57     22.098288   15.648919   19.943499 H          1 MOL1         0.0783
     121    O29     22.344978   13.903377   21.074296 O.3        1 MOL1        -0.3740
     122    C36     24.010448   14.757932   19.540098 C.3        1 MOL1         0.0138
     123    H58     24.342918   15.662597   19.014123 H          1 MOL1         0.0794
     124    H59     23.608739   14.070822   18.783338 H          1 MOL1         0.0794
     125    O30     25.111159   14.153448   20.225121 O.3        1 MOL1        -0.5486
     126    H60     24.749229   13.365295   20.688075 H          1 MOL1         0.3769
     127    N1      19.315421   18.876728   16.891397 N.4        1 MOL1        -0.5919
     128    H1      18.966363   19.850007   16.905685 H          1 MOL1         0.3682
     129    H2      20.290104   18.903962   16.576981 H          1 MOL1         0.3682
     130    H3      18.774968   18.371640   16.182499 H          1 MOL1         0.3682
     131    C1      19.176838   18.246605   18.259326 C.3        1 MOL1         0.0252
     132    H4      19.437314   17.187773   18.182584 H          1 MOL1         0.0971
     133    H5      18.125779   18.324896   18.549649 H          1 MOL1         0.0971
     134    C2      20.060665   18.926688   19.317310 C.3        1 MOL1        -0.1369
     135    H6      21.096341   18.580910   19.204074 H          1 MOL1         0.0997
     136    H7      20.065924   20.011076   19.143473 H          1 MOL1         0.0997
     137    C3      19.550300   18.644632   20.745880 C.3        1 MOL1        -0.1329
     138    H8      19.600346   17.569415   20.962708 H          1 MOL1         0.0997
     139    H9      18.493871   18.934084   20.806757 H          1 MOL1         0.0997
     140    C4      20.353544   19.428476   21.803883 C.3        1 MOL1        -0.1305
     141    H10     21.398127   19.092523   21.803603 H          1 MOL1         0.0997
     142    H11     20.364645   20.491738   21.534520 H          1 MOL1         0.0997
     143    C5      19.763598   19.263574   23.220133 C.3        1 MOL1        -0.2320
     144    H12     18.754427   19.691468   23.279621 H          1 MOL1         0.1008
     145    H13     19.704730   18.205003   23.506460 H          1 MOL1         0.1008
     146    H14     20.388475   19.778185   23.961484 H          1 MOL1         0.1008
@<TRIPOS>BOND
    1     1     2    1
    2     1     3    1
    3     1     4    1
    4     4     5    1
    5     4     6    1
    6     6     7    1
    7     4     8    1
    8     8     9    1
    9     8    10    1
   10    10    11    1
   11     8    12    1
   12    12    13    1
   13    12    14    1
   14    14    15    1
   15     1    16    1
   16    14    16    1
   17    14    17    1
   18    17    18    1
   19    17    19    1
   20    17    20    1
   21    20    21    1
   22    22    23    1
   23    22    24    1
   24    22    25    1
   25    25    26    1
   26    25    27    1
   27    27    28    1
   28    25    29    1
   29    29    30    1
   30    29    31    1
   31    31    32    1
   32     3    33    1
   33    29    33    1
   34    33    34    1
   35    33    35    1
   36    35    36    1
   37    22    37    1
   38    35    37    1
   39    35    38    1
   40    38    39    1
   41    38    40    1
   42    38    41    1
   43    41    42    1
   44    43    44    1
   45    43    45    1
   46    43    46    1
   47    46    47    1
   48    46    48    1
   49    48    49    1
   50    46    50    1
   51    50    51    1
   52    50    52    1
   53    52    53    1
   54    24    54    1
   55    50    54    1
   56    54    55    1
   57    54    56    1
   58    56    57    1
   59    43    58    1
   60    56    58    1
   61    56    59    1
   62    59    60    1
   63    59    61    1
   64    59    62    1
   65    62    63    1
   66    64    65    1
   67    64    66    1
   68    64    67    1
   69    67    68    1
   70    67    69    1
   71    69    70    1
   72    67    71    1
   73    71    72    1
   74    71    73    1
   75    73    74    1
   76    45    75    1
   77    71    75    1
   78    75    76    1
   79    75    77    1
   80    77    78    1
   81    64    79    1
   82    77    79    1
   83    77    80    1
   84    80    81    1
   85    80    82    1
   86    80    83    1
   87    83    84    1
   88    85    86    1
   89    85    87    1
   90    85    88    1
   91    88    89    1
   92    88    90    1
   93    90    91    1
   94    88    92    1
   95    92    93    1
   96    92    94    1
   97    94    95    1
   98    66    96    1
   99    92    96    1
  100    96    97    1
  101    96    98    1
  102    98    99    1
  103    85   100    1
  104    98   100    1
  105    98   101    1
  106   101   102    1
  107   101   103    1
  108   101   104    1
  109   104   105    1
  110   106   107    1
  111    12   108    1
  112   106   108    1
  113   106   109    1
  114   109   110    1
  115   109   111    1
  116   111   112    1
  117   109   113    1
  118   113   114    1
  119   113   115    1
  120   115   116    1
  121    87   117    1
  122   113   117    1
  123   117   118    1
  124   117   119    1
  125   119   120    1
  126   106   121    1
  127   119   121    1
  128   119   122    1
  129   122   123    1
  130   122   124    1
  131   122   125    1
  132   125   126    1
  133   127   128    1
  134   127   129    1
  135   127   130    1
  136   127   131    1
  137   131   132    1
  138   131   133    1
  139   131   134    1
  140   134   135    1
  141   134   136    1
  142   134   137    1
  143   137   138    1
  144   137   139    1
  145   137   140    1
  146   140   141    1
  147   140   142    1
  148   140   143    1
  149   143   144    1
  150   143   145    1
  151   143   146    1
@<TRIPOS>SUBSTRUCTURE
       1 MOL1            1 RESIDUE      1      MOL     
       2 MOL1          146 RESIDUE      1      MOL     
@<SCITEGIC>MOL_PROPERTY
VM2 Rank
SciTegic.value.IntegerValue
4

@<SCITEGIC>MOL_PROPERTY
Conf_Id
SciTegic.value.IntegerValue
20014

@<SCITEGIC>MOL_PROPERTY
Probability
SciTegic.value.DoubleValue
1.22

@<SCITEGIC>MOL_PROPERTY
Sum Probability
SciTegic.value.DoubleValue
6.85

@<SCITEGIC>MOL_PROPERTY
Delta G
SciTegic.value.DoubleValue
0.412

@<SCITEGIC>MOL_PROPERTY
G
SciTegic.value.DoubleValue
548.219

@<SCITEGIC>MOL_PROPERTY
E
SciTegic.value.DoubleValue
354.976

@<SCITEGIC>MOL_PROPERTY
-TS
SciTegic.value.DoubleValue
193.243

@<SCITEGIC>MOL_PROPERTY
U+W
SciTegic.value.DoubleValue
226.205

@<SCITEGIC>MOL_PROPERTY
U
SciTegic.value.DoubleValue
297.419

@<SCITEGIC>MOL_PROPERTY
W
SciTegic.value.DoubleValue
-71.214

@<SCITEGIC>MOL_PROPERTY
W(PB)
SciTegic.value.DoubleValue
-77.169

@<SCITEGIC>MOL_PROPERTY
W(SA)
SciTegic.value.DoubleValue
5.954

@<SCITEGIC>MOL_PROPERTY
Valence
SciTegic.value.DoubleValue
145.287

@<SCITEGIC>MOL_PROPERTY
Coulomb
SciTegic.value.DoubleValue
176.232

@<SCITEGIC>MOL_PROPERTY
VdW
SciTegic.value.DoubleValue
-24.100

@<SCITEGIC>MOL_PROPERTY
VdW6
SciTegic.value.DoubleValue
-173.678

@<SCITEGIC>MOL_PROPERTY
VdW12
SciTegic.value.DoubleValue
149.579

@<SCITEGIC>MOL_PROPERTY
Bond
SciTegic.value.DoubleValue
4.337

@<SCITEGIC>MOL_PROPERTY
Angle
SciTegic.value.DoubleValue
10.037

@<SCITEGIC>MOL_PROPERTY
Pdih
SciTegic.value.DoubleValue
130.914

@<SCITEGIC>MOL_PROPERTY
Idih
SciTegic.value.DoubleValue
0.000

@<SCITEGIC>MOL_PROPERTY
Tether
SciTegic.value.DoubleValue
0.000

@<TRIPOS>MOLECULE
CD_guest-s11_vm2_rndm.mol2 : vm2 host+ligand conformer 5
         146         151           2
SMALL
USER_CHARGES
 
@<TRIPOS>ATOM
       1    C1      16.186654   15.008959   20.557166 C.3        1 MOL1         0.2972
       2    H1      15.131724   14.896237   20.275346 H          1 MOL1         0.0751
       3    O1      16.515467   16.382136   20.858612 O.3        1 MOL1        -0.3740
       4    C2      16.551340   14.104823   21.762588 C.3        1 MOL1         0.1003
       5    H2      16.434439   13.064916   21.430484 H          1 MOL1         0.0783
       6    O2      15.689116   14.326645   22.887704 O.3        1 MOL1        -0.5519
       7    H3      15.837762   15.258964   23.187044 H          1 MOL1         0.3769
       8    C3      18.032884   14.313164   22.158489 C.3        1 MOL1         0.1053
       9    H4      18.138693   15.335242   22.548871 H          1 MOL1         0.0783
      10    O3      18.377806   13.368449   23.177838 O.3        1 MOL1        -0.5519
      11    H5      17.590124   13.330891   23.767151 H          1 MOL1         0.3769
      12    C4      18.980749   14.163832   20.933581 C.3        1 MOL1         0.1018
      13    H6      19.138252   13.099010   20.715578 H          1 MOL1         0.0783
      14    C5      18.449436   14.859941   19.650079 C.3        1 MOL1         0.1043
      15    H7      18.611731   15.939489   19.746242 H          1 MOL1         0.0783
      16    O4      17.037461   14.586706   19.472224 O.3        1 MOL1        -0.3740
      17    C6      19.187721   14.379234   18.383962 C.3        1 MOL1         0.0138
      18    H8      18.977967   13.313210   18.223575 H          1 MOL1         0.0794
      19    H9      20.270283   14.488346   18.533835 H          1 MOL1         0.0794
      20    O5      18.771933   15.149156   17.254051 O.3        1 MOL1        -0.5486
      21    H10     17.791203   15.087957   17.228757 H          1 MOL1         0.3769
      22    C7      15.014568   20.090505   21.820882 C.3        1 MOL1         0.2972
      23    H11     14.406569   20.956600   22.111197 H          1 MOL1         0.0751
      24    O6      16.289201   20.492912   21.276121 O.3        1 MOL1        -0.3740
      25    C8      15.257326   19.172737   23.045731 C.3        1 MOL1         0.1003
      26    H12     14.272885   18.843593   23.403157 H          1 MOL1         0.0783
      27    O7      15.934635   19.871719   24.102852 O.3        1 MOL1        -0.5519
      28    H13     15.817592   20.837636   23.932726 H          1 MOL1         0.3769
      29    C9      16.069069   17.921118   22.643375 C.3        1 MOL1         0.1053
      30    H14     17.081925   18.249329   22.386986 H          1 MOL1         0.0783
      31    O8      16.128781   17.030318   23.760094 O.3        1 MOL1        -0.5519
      32    H15     16.354585   17.607987   24.523967 H          1 MOL1         0.3769
      33    C10     15.468783   17.205982   21.405055 C.3        1 MOL1         0.1018
      34    H16     14.599364   16.614697   21.721984 H          1 MOL1         0.0783
      35    C11     15.060276   18.193949   20.275968 C.3        1 MOL1         0.1043
      36    H17     15.975810   18.562271   19.794785 H          1 MOL1         0.0783
      37    O9      14.320861   19.312155   20.823767 O.3        1 MOL1        -0.3740
      38    C12     14.189942   17.541693   19.178869 C.3        1 MOL1         0.0138
      39    H18     14.776700   16.764018   18.672099 H          1 MOL1         0.0794
      40    H19     13.938804   18.302601   18.427810 H          1 MOL1         0.0794
      41    O10     12.997589   16.977171   19.731854 O.3        1 MOL1        -0.5486
      42    H20     12.531939   17.711380   20.190937 H          1 MOL1         0.3769
      43    C13     18.514355   23.997318   20.940849 C.3        1 MOL1         0.2972
      44    H21     18.875714   25.008576   20.713015 H          1 MOL1         0.0751
      45    O11     19.578827   23.133450   21.380881 O.3        1 MOL1        -0.3740
      46    C14     17.436349   24.028808   22.051429 C.3        1 MOL1         0.1003
      47    H22     16.601187   24.635484   21.677759 H          1 MOL1         0.0783
      48    O12     17.942497   24.622401   23.257824 O.3        1 MOL1        -0.5519
      49    H23     18.798351   24.173204   23.476051 H          1 MOL1         0.3769
      50    C15     16.902134   22.602866   22.331664 C.3        1 MOL1         0.1053
      51    H24     17.717954   22.011463   22.770142 H          1 MOL1         0.0783
      52    O13     15.819274   22.699701   23.263726 O.3        1 MOL1        -0.5519
      53    H25     16.107311   23.380786   23.913853 H          1 MOL1         0.3769
      54    C16     16.449843   21.902448   21.017471 C.3        1 MOL1         0.1018
      55    H26     15.510214   22.349787   20.666507 H          1 MOL1         0.0783
      56    C17     17.506679   22.027074   19.885319 C.3        1 MOL1         0.1043
      57    H27     18.368411   21.394063   20.129371 H          1 MOL1         0.0783
      58    O14     17.912013   23.412752   19.768694 O.3        1 MOL1        -0.3740
      59    C18     16.938758   21.584229   18.516665 C.3        1 MOL1         0.0138
      60    H28     16.206151   22.330821   18.181929 H          1 MOL1         0.0794
      61    H29     16.405140   20.632552   18.639233 H          1 MOL1         0.0794
      62    O15     17.977574   21.429499   17.541033 O.3        1 MOL1        -0.5486
      63    H30     17.555625   21.524608   16.659557 H          1 MOL1         0.3769
      64    C19     23.619774   22.909781   21.975424 C.3        1 MOL1         0.2972
      65    H31     24.697312   23.039954   22.139033 H          1 MOL1         0.0751
      66    O16     23.283195   21.544695   21.656023 O.3        1 MOL1        -0.3740
      67    C20     22.831383   23.325179   23.241525 C.3        1 MOL1         0.1003
      68    H32     23.009110   24.396029   23.405509 H          1 MOL1         0.0783
      69    O17     23.274845   22.590852   24.393544 O.3        1 MOL1        -0.5519
      70    H33     23.791832   21.813984   24.064674 H          1 MOL1         0.3769
      71    C21     21.315603   23.118448   23.023814 C.3        1 MOL1         0.1053
      72    H34     21.135539   22.039502   22.964342 H          1 MOL1         0.0783
      73    O18     20.594492   23.656317   24.135970 O.3        1 MOL1        -0.5519
      74    H35     21.078770   23.333829   24.929000 H          1 MOL1         0.3769
      75    C22     20.823940   23.776215   21.708186 C.3        1 MOL1         0.1018
      76    H36     20.697019   24.852078   21.888640 H          1 MOL1         0.0783
      77    C23     21.776949   23.546930   20.498982 C.3        1 MOL1         0.1043
      78    H37     21.638042   22.515699   20.148258 H          1 MOL1         0.0783
      79    O19     23.159264   23.743729   20.892389 O.3        1 MOL1        -0.3740
      80    C24     21.489272   24.480753   19.302332 C.3        1 MOL1         0.0138
      81    H38     20.487863   24.261794   18.908175 H          1 MOL1         0.0794
      82    H39     22.208356   24.260735   18.501917 H          1 MOL1         0.0794
      83    O20     21.579828   25.855626   19.687085 O.3        1 MOL1        -0.5486
      84    H40     22.485153   25.981749   20.049090 H          1 MOL1         0.3769
      85    C25     24.896755   17.799536   20.927896 C.3        1 MOL1         0.2972
      86    H41     25.533542   16.952055   20.643463 H          1 MOL1         0.0751
      87    O21     23.535484   17.379377   21.155670 O.3        1 MOL1        -0.3740
      88    C26     25.457183   18.519720   22.187557 C.3        1 MOL1         0.1003
      89    H42     26.463460   18.875330   21.930530 H          1 MOL1         0.0783
      90    O22     25.552566   17.641029   23.318718 O.3        1 MOL1        -0.5519
      91    H43     24.628304   17.369442   23.549701 H          1 MOL1         0.3769
      92    C27     24.596505   19.753658   22.547568 C.3        1 MOL1         0.1053
      93    H44     23.614291   19.392612   22.882636 H          1 MOL1         0.0783
      94    O23     25.226825   20.485432   23.603080 O.3        1 MOL1        -0.5519
      95    H45     25.538707   19.802699   24.238998 H          1 MOL1         0.3769
      96    C28     24.378680   20.675374   21.321016 C.3        1 MOL1         0.1018
      97    H46     25.299464   21.232142   21.101145 H          1 MOL1         0.0783
      98    C29     23.954992   19.882549   20.059083 C.3        1 MOL1         0.1043
      99    H47     22.932653   19.521197   20.209746 H          1 MOL1         0.0783
     100    O24     24.863785   18.771059   19.861128 O.3        1 MOL1        -0.3740
     101    C30     23.971335   20.738693   18.776545 C.3        1 MOL1         0.0138
     102    H48     25.009343   20.983458   18.514354 H          1 MOL1         0.0794
     103    H49     23.443335   21.682612   18.960282 H          1 MOL1         0.0794
     104    O25     23.333391   20.026309   17.713382 O.3        1 MOL1        -0.5486
     105    H50     23.811350   19.171777   17.631223 H          1 MOL1         0.3769
     106    C31     21.202605   14.053044   21.964022 C.3        1 MOL1         0.2972
     107    H51     20.809704   13.070886   22.256701 H          1 MOL1         0.0751
     108    O26     20.220863   14.826955   21.246600 O.3        1 MOL1        -0.3740
     109    C32     21.661913   14.847638   23.215436 C.3        1 MOL1         0.1003
     110    H52     22.448888   14.257355   23.702700 H          1 MOL1         0.0783
     111    O27     20.584682   15.055261   24.143287 O.3        1 MOL1        -0.5519
     112    H53     19.877709   14.402116   23.922408 H          1 MOL1         0.3769
     113    C33     22.262404   16.211268   22.808176 C.3        1 MOL1         0.1053
     114    H54     21.447208   16.821881   22.402256 H          1 MOL1         0.0783
     115    O28     22.815847   16.846601   23.965091 O.3        1 MOL1        -0.5519
     116    H55     22.126096   16.738610   24.657982 H          1 MOL1         0.3769
     117    C34     23.343684   16.063237   21.710334 C.3        1 MOL1         0.1018
     118    H56     24.260470   15.670946   22.169447 H          1 MOL1         0.0783
     119    C35     22.893785   15.125288   20.554764 C.3        1 MOL1         0.1043
     120    H57     22.123686   15.644136   19.968397 H          1 MOL1         0.0783
     121    O29     22.349015   13.897064   21.100481 O.3        1 MOL1        -0.3740
     122    C36     24.035610   14.744377   19.586129 C.3        1 MOL1         0.0138
     123    H58     24.375789   15.646923   19.061514 H          1 MOL1         0.0794
     124    H59     23.639678   14.056872   18.826682 H          1 MOL1         0.0794
     125    O30     25.127647   14.138158   20.283348 O.3        1 MOL1        -0.5486
     126    H60     24.759252   13.351087   20.743033 H          1 MOL1         0.3769
     127    N1      19.522204   18.942703   16.951222 N.4        1 MOL1        -0.5919
     128    H1      20.517890   18.929396   16.707532 H          1 MOL1         0.3682
     129    H2      19.011542   18.460182   16.205332 H          1 MOL1         0.3682
     130    H3      19.214632   19.927283   16.949332 H          1 MOL1         0.3682
     131    C1      19.261079   18.322070   18.304516 C.3        1 MOL1         0.0252
     132    H4      19.473610   17.251604   18.244091 H          1 MOL1         0.0971
     133    H5      18.199298   18.455772   18.528486 H          1 MOL1         0.0971
     134    C2      20.113006   18.964556   19.408810 C.3        1 MOL1        -0.1369
     135    H6      21.143143   18.596690   19.325667 H          1 MOL1         0.0997
     136    H7      20.145369   20.051830   19.253800 H          1 MOL1         0.0997
     137    C3      19.550406   18.668895   20.814000 C.3        1 MOL1        -0.1329
     138    H8      19.583055   17.590508   21.018236 H          1 MOL1         0.0997
     139    H9      18.495883   18.969917   20.843912 H          1 MOL1         0.0997
     140    C4      20.329299   19.433172   21.903983 C.3        1 MOL1        -0.1305
     141    H10     21.378589   19.110782   21.909260 H          1 MOL1         0.0997
     142    H11     20.329082   20.502573   21.660708 H          1 MOL1         0.0997
     143    C5      19.722291   19.227355   23.307281 C.3        1 MOL1        -0.2320
     144    H12     19.674463   18.161705   23.568457 H          1 MOL1         0.1008
     145    H13     20.329591   19.733931   24.068473 H          1 MOL1         0.1008
     146    H14     18.706797   19.640267   23.362195 H          1 MOL1         0.1008
@<TRIPOS>BOND
    1     1     2    1
    2     1     3    1
    3     1     4    1
    4     4     5    1
    5     4     6    1
    6     6     7    1
    7     4     8    1
    8     8     9    1
    9     8    10    1
   10    10    11    1
   11     8    12    1
   12    12    13    1
   13    12    14    1
   14    14    15    1
   15     1    16    1
   16    14    16    1
   17    14    17    1
   18    17    18    1
   19    17    19    1
   20    17    20    1
   21    20    21    1
   22    22    23    1
   23    22    24    1
   24    22    25    1
   25    25    26    1
   26    25    27    1
   27    27    28    1
   28    25    29    1
   29    29    30    1
   30    29    31    1
   31    31    32    1
   32     3    33    1
   33    29    33    1
   34    33    34    1
   35    33    35    1
   36    35    36    1
   37    22    37    1
   38    35    37    1
   39    35    38    1
   40    38    39    1
   41    38    40    1
   42    38    41    1
   43    41    42    1
   44    43    44    1
   45    43    45    1
   46    43    46    1
   47    46    47    1
   48    46    48    1
   49    48    49    1
   50    46    50    1
   51    50    51    1
   52    50    52    1
   53    52    53    1
   54    24    54    1
   55    50    54    1
   56    54    55    1
   57    54    56    1
   58    56    57    1
   59    43    58    1
   60    56    58    1
   61    56    59    1
   62    59    60    1
   63    59    61    1
   64    59    62    1
   65    62    63    1
   66    64    65    1
   67    64    66    1
   68    64    67    1
   69    67    68    1
   70    67    69    1
   71    69    70    1
   72    67    71    1
   73    71    72    1
   74    71    73    1
   75    73    74    1
   76    45    75    1
   77    71    75    1
   78    75    76    1
   79    75    77    1
   80    77    78    1
   81    64    79    1
   82    77    79    1
   83    77    80    1
   84    80    81    1
   85    80    82    1
   86    80    83    1
   87    83    84    1
   88    85    86    1
   89    85    87    1
   90    85    88    1
   91    88    89    1
   92    88    90    1
   93    90    91    1
   94    88    92    1
   95    92    93    1
   96    92    94    1
   97    94    95    1
   98    66    96    1
   99    92    96    1
  100    96    97    1
  101    96    98    1
  102    98    99    1
  103    85   100    1
  104    98   100    1
  105    98   101    1
  106   101   102    1
  107   101   103    1
  108   101   104    1
  109   104   105    1
  110   106   107    1
  111    12   108    1
  112   106   108    1
  113   106   109    1
  114   109   110    1
  115   109   111    1
  116   111   112    1
  117   109   113    1
  118   113   114    1
  119   113   115    1
  120   115   116    1
  121    87   117    1
  122   113   117    1
  123   117   118    1
  124   117   119    1
  125   119   120    1
  126   106   121    1
  127   119   121    1
  128   119   122    1
  129   122   123    1
  130   122   124    1
  131   122   125    1
  132   125   126    1
  133   127   128    1
  134   127   129    1
  135   127   130    1
  136   127   131    1
  137   131   132    1
  138   131   133    1
  139   131   134    1
  140   134   135    1
  141   134   136    1
  142   134   137    1
  143   137   138    1
  144   137   139    1
  145   137   140    1
  146   140   141    1
  147   140   142    1
  148   140   143    1
  149   143   144    1
  150   143   145    1
  151   143   146    1
@<TRIPOS>SUBSTRUCTURE
       1 MOL1            1 RESIDUE      1      MOL     
       2 MOL1          146 RESIDUE      1      MOL     
@<SCITEGIC>MOL_PROPERTY
VM2 Rank
SciTegic.value.IntegerValue
5

@<SCITEGIC>MOL_PROPERTY
Conf_Id
SciTegic.value.IntegerValue
22686

@<SCITEGIC>MOL_PROPERTY
Probability
SciTegic.value.DoubleValue
1.21

@<SCITEGIC>MOL_PROPERTY
Sum Probability
SciTegic.value.DoubleValue
8.06

@<SCITEGIC>MOL_PROPERTY
Delta G
SciTegic.value.DoubleValue
0.414

@<SCITEGIC>MOL_PROPERTY
G
SciTegic.value.DoubleValue
548.220

@<SCITEGIC>MOL_PROPERTY
E
SciTegic.value.DoubleValue
356.063

@<SCITEGIC>MOL_PROPERTY
-TS
SciTegic.value.DoubleValue
192.157

@<SCITEGIC>MOL_PROPERTY
U+W
SciTegic.value.DoubleValue
227.292

@<SCITEGIC>MOL_PROPERTY
U
SciTegic.value.DoubleValue
300.955

@<SCITEGIC>MOL_PROPERTY
W
SciTegic.value.DoubleValue
-73.663

@<SCITEGIC>MOL_PROPERTY
W(PB)
SciTegic.value.DoubleValue
-79.599

@<SCITEGIC>MOL_PROPERTY
W(SA)
SciTegic.value.DoubleValue
5.937

@<SCITEGIC>MOL_PROPERTY
Valence
SciTegic.value.DoubleValue
145.531

@<SCITEGIC>MOL_PROPERTY
Coulomb
SciTegic.value.DoubleValue
179.915

@<SCITEGIC>MOL_PROPERTY
VdW
SciTegic.value.DoubleValue
-24.492

@<SCITEGIC>MOL_PROPERTY
VdW6
SciTegic.value.DoubleValue
-172.777

@<SCITEGIC>MOL_PROPERTY
VdW12
SciTegic.value.DoubleValue
148.285

@<SCITEGIC>MOL_PROPERTY
Bond
SciTegic.value.DoubleValue
4.302

@<SCITEGIC>MOL_PROPERTY
Angle
SciTegic.value.DoubleValue
9.789

@<SCITEGIC>MOL_PROPERTY
Pdih
SciTegic.value.DoubleValue
131.441

@<SCITEGIC>MOL_PROPERTY
Idih
SciTegic.value.DoubleValue
0.000

@<SCITEGIC>MOL_PROPERTY
Tether
SciTegic.value.DoubleValue
0.000

@<TRIPOS>MOLECULE
CD_guest-s11_vm2_rndm.mol2 : vm2 host+ligand conformer 6
         146         151           2
SMALL
USER_CHARGES
 
@<TRIPOS>ATOM
       1    C1      16.165030   14.990299   20.622921 C.3        1 MOL1         0.2972
       2    H1      15.104660   14.878768   20.361773 H          1 MOL1         0.0751
       3    O1      16.505697   16.365693   20.900237 O.3        1 MOL1        -0.3740
       4    C2      16.546779   14.102083   21.834410 C.3        1 MOL1         0.1003
       5    H2      16.418022   13.058062   21.520070 H          1 MOL1         0.0783
       6    O2      15.706473   14.346324   22.971488 O.3        1 MOL1        -0.5519
       7    H3      15.861010   15.284099   23.250255 H          1 MOL1         0.3769
       8    C3      18.036226   14.307651   22.200854 C.3        1 MOL1         0.1053
       9    H4      18.152917   15.332792   22.580031 H          1 MOL1         0.0783
      10    O3      18.394533   13.370255   23.222302 O.3        1 MOL1        -0.5519
      11    H5      17.617738   13.342911   23.826480 H          1 MOL1         0.3769
      12    C4      18.963254   14.142881   20.961868 C.3        1 MOL1         0.1018
      13    H6      19.119501   13.075219   20.757238 H          1 MOL1         0.0783
      14    C5      18.409778   14.817845   19.676356 C.3        1 MOL1         0.1043
      15    H7      18.577497   15.898197   19.749732 H          1 MOL1         0.0783
      16    O4      16.993854   14.547601   19.529367 O.3        1 MOL1        -0.3740
      17    C6      19.122557   14.311137   18.405759 C.3        1 MOL1         0.0138
      18    H8      18.911732   13.241541   18.272899 H          1 MOL1         0.0794
      19    H9      20.207802   14.425259   18.530869 H          1 MOL1         0.0794
      20    O5      18.681498   15.055299   17.268205 O.3        1 MOL1        -0.5486
      21    H10     17.700552   14.992181   17.265468 H          1 MOL1         0.3769
      22    C7      15.026825   20.097006   21.805929 C.3        1 MOL1         0.2972
      23    H11     14.424322   20.970876   22.083756 H          1 MOL1         0.0751
      24    O6      16.299221   20.482948   21.244463 O.3        1 MOL1        -0.3740
      25    C8      15.277671   19.202350   23.046117 C.3        1 MOL1         0.1003
      26    H12     14.295604   18.883823   23.419341 H          1 MOL1         0.0783
      27    O7      15.967711   19.920421   24.082108 O.3        1 MOL1        -0.5519
      28    H13     15.836812   20.882862   23.903373 H          1 MOL1         0.3769
      29    C9      16.081836   17.940302   22.660100 C.3        1 MOL1         0.1053
      30    H14     17.093618   18.260124   22.388659 H          1 MOL1         0.0783
      31    O8      16.148694   17.069512   23.792133 O.3        1 MOL1        -0.5519
      32    H15     16.384980   17.659566   24.543228 H          1 MOL1         0.3769
      33    C10     15.467541   17.203889   21.441165 C.3        1 MOL1         0.1018
      34    H16     14.599336   16.621906   21.778072 H          1 MOL1         0.0783
      35    C11     15.051093   18.171051   20.297193 C.3        1 MOL1         0.1043
      36    H17     15.962908   18.526580   19.800072 H          1 MOL1         0.0783
      37    O9      14.321351   19.302302   20.830293 O.3        1 MOL1        -0.3740
      38    C12     14.167594   17.501050   19.221478 C.3        1 MOL1         0.0138
      39    H18     14.746884   16.712428   18.723115 H          1 MOL1         0.0794
      40    H19     13.910698   18.248614   18.459040 H          1 MOL1         0.0794
      41    O10     12.979548   16.950311   19.797164 O.3        1 MOL1        -0.5486
      42    H20     12.519995   17.694438   20.246306 H          1 MOL1         0.3769
      43    C13     18.536909   23.982041   20.850345 C.3        1 MOL1         0.2972
      44    H21     18.898255   24.987950   20.599947 H          1 MOL1         0.0751
      45    O11     19.601922   23.130960   21.311850 O.3        1 MOL1        -0.3740
      46    C14     17.448070   24.036400   21.951813 C.3        1 MOL1         0.1003
      47    H22     16.616905   24.634854   21.556592 H          1 MOL1         0.0783
      48    O12     17.941137   24.657082   23.149871 O.3        1 MOL1        -0.5519
      49    H23     18.769278   24.181398   23.413865 H          1 MOL1         0.3769
      50    C15     16.908272   22.617726   22.261235 C.3        1 MOL1         0.1053
      51    H24     17.719691   22.036540   22.721121 H          1 MOL1         0.0783
      52    O13     15.817698   22.737692   23.181466 O.3        1 MOL1        -0.5519
      53    H25     16.099197   23.435669   23.816323 H          1 MOL1         0.3769
      54    C16     16.468572   21.886152   20.959457 C.3        1 MOL1         0.1018
      55    H26     15.537879   22.328851   20.580071 H          1 MOL1         0.0783
      56    C17     17.550603   21.978809   19.851058 C.3        1 MOL1         0.1043
      57    H27     18.409781   21.364732   20.146728 H          1 MOL1         0.0783
      58    O14     17.950068   23.361631   19.687244 O.3        1 MOL1        -0.3740
      59    C18     17.043079   21.472912   18.483748 C.3        1 MOL1         0.0138
      60    H28     16.217528   22.112653   18.144271 H          1 MOL1         0.0794
      61    H29     16.650114   20.454397   18.597559 H          1 MOL1         0.0794
      62    O15     18.109709   21.480964   17.530313 O.3        1 MOL1        -0.5486
      63    H30     18.464718   22.397946   17.536079 H          1 MOL1         0.3769
      64    C19     23.594524   22.883877   22.062932 C.3        1 MOL1         0.2972
      65    H31     24.666291   22.987318   22.276359 H          1 MOL1         0.0751
      66    O16     23.254598   21.546009   21.643105 O.3        1 MOL1        -0.3740
      67    C20     22.760762   23.238329   23.318522 C.3        1 MOL1         0.1003
      68    H32     22.943223   24.296224   23.548239 H          1 MOL1         0.0783
      69    O17     23.147542   22.436475   24.445654 O.3        1 MOL1        -0.5519
      70    H33     23.730585   21.713728   24.104631 H          1 MOL1         0.3769
      71    C21     21.253421   23.062620   23.030418 C.3        1 MOL1         0.1053
      72    H34     21.067632   21.989837   22.912705 H          1 MOL1         0.0783
      73    O18     20.492613   23.552324   24.138390 O.3        1 MOL1        -0.5519
      74    H35     20.941011   23.184108   24.932620 H          1 MOL1         0.3769
      75    C22     20.814677   23.783431   21.728748 C.3        1 MOL1         0.1018
      76    H36     20.653586   24.845417   21.957758 H          1 MOL1         0.0783
      77    C23     21.824680   23.634686   20.552433 C.3        1 MOL1         0.1043
      78    H37     21.698679   22.631714   20.123789 H          1 MOL1         0.0783
      79    O19     23.189152   23.791557   21.018352 O.3        1 MOL1        -0.3740
      80    C24     21.596254   24.651026   19.411706 C.3        1 MOL1         0.0138
      81    H38     20.615435   24.464008   18.955131 H          1 MOL1         0.0794
      82    H39     22.353774   24.485051   18.633992 H          1 MOL1         0.0794
      83    O20     21.667524   25.995338   19.894959 O.3        1 MOL1        -0.5486
      84    H40     22.554658   26.094058   20.307139 H          1 MOL1         0.3769
      85    C25     24.883551   17.810658   20.890224 C.3        1 MOL1         0.2972
      86    H41     25.522330   16.966742   20.600540 H          1 MOL1         0.0751
      87    O21     23.522489   17.385488   21.111249 O.3        1 MOL1        -0.3740
      88    C26     25.441371   18.523185   22.155327 C.3        1 MOL1         0.1003
      89    H42     26.444070   18.888956   21.898534 H          1 MOL1         0.0783
      90    O22     25.548513   17.636828   23.279194 O.3        1 MOL1        -0.5519
      91    H43     24.626750   17.360142   23.513900 H          1 MOL1         0.3769
      92    C27     24.572419   19.747510   22.527212 C.3        1 MOL1         0.1053
      93    H44     23.591022   19.378125   22.855475 H          1 MOL1         0.0783
      94    O23     25.198072   20.469047   23.592684 O.3        1 MOL1        -0.5519
      95    H45     25.519875   19.778866   24.215736 H          1 MOL1         0.3769
      96    C28     24.354564   20.681042   21.309296 C.3        1 MOL1         0.1018
      97    H46     25.273642   21.244961   21.100586 H          1 MOL1         0.0783
      98    C29     23.945136   19.901894   20.032750 C.3        1 MOL1         0.1043
      99    H47     22.919122   19.539427   20.158784 H          1 MOL1         0.0783
     100    O24     24.854509   18.791242   19.831500 O.3        1 MOL1        -0.3740
     101    C30     23.987153   20.777833   18.764318 C.3        1 MOL1         0.0138
     102    H48     25.030013   21.030154   18.529939 H          1 MOL1         0.0794
     103    H49     23.451660   21.717081   18.951129 H          1 MOL1         0.0794
     104    O25     23.377404   20.080741   17.675517 O.3        1 MOL1        -0.5486
     105    H50     23.851965   19.223745   17.598538 H          1 MOL1         0.3769
     106    C31     21.204361   14.049934   21.951966 C.3        1 MOL1         0.2972
     107    H51     20.822506   13.065895   22.252810 H          1 MOL1         0.0751
     108    O26     20.207305   14.813232   21.244079 O.3        1 MOL1        -0.3740
     109    C32     21.675672   14.850680   23.195047 C.3        1 MOL1         0.1003
     110    H52     22.473971   14.266942   23.671762 H          1 MOL1         0.0783
     111    O27     20.611521   15.054031   24.138883 O.3        1 MOL1        -0.5519
     112    H53     19.904907   14.396446   23.930410 H          1 MOL1         0.3769
     113    C33     22.260881   16.216935   22.776274 C.3        1 MOL1         0.1053
     114    H54     21.437787   16.818115   22.372587 H          1 MOL1         0.0783
     115    O28     22.815334   16.862579   23.927022 O.3        1 MOL1        -0.5519
     116    H55     22.131762   16.748008   24.625079 H          1 MOL1         0.3769
     117    C34     23.335346   16.069893   21.671799 C.3        1 MOL1         0.1018
     118    H56     24.254683   15.678507   22.126522 H          1 MOL1         0.0783
     119    C35     22.880072   15.126607   20.522744 C.3        1 MOL1         0.1043
     120    H57     22.099138   15.640946   19.947092 H          1 MOL1         0.0783
     121    O29     22.339029   13.898351   21.073334 O.3        1 MOL1        -0.3740
     122    C36     24.011327   14.760130   19.532275 C.3        1 MOL1         0.0138
     123    H58     24.247419   15.647318   18.929342 H          1 MOL1         0.0794
     124    H59     23.637759   13.989526   18.844669 H          1 MOL1         0.0794
     125    O30     25.191421   14.299906   20.202779 O.3        1 MOL1        -0.5486
     126    H60     25.827579   14.001994   19.516333 H          1 MOL1         0.3769
     127    N1      19.296166   18.862273   16.881699 N.4        1 MOL1        -0.5919
     128    H1      20.269669   18.889372   16.563673 H          1 MOL1         0.3682
     129    H2      18.753242   18.356362   16.175289 H          1 MOL1         0.3682
     130    H3      18.946953   19.835497   16.896181 H          1 MOL1         0.3682
     131    C1      19.162779   18.233508   18.250783 C.3        1 MOL1         0.0252
     132    H4      19.423522   17.174737   18.174260 H          1 MOL1         0.0971
     133    H5      18.112703   18.311560   18.544706 H          1 MOL1         0.0971
     134    C2      20.049925   18.915083   19.305041 C.3        1 MOL1        -0.1369
     135    H6      21.085236   18.568767   19.189753 H          1 MOL1         0.0997
     136    H7      20.055138   19.999139   19.129104 H          1 MOL1         0.0997
     137    C3      19.543167   18.636106   20.735517 C.3        1 MOL1        -0.1329
     138    H8      19.592883   17.561344   20.954523 H          1 MOL1         0.0997
     139    H9      18.487244   18.926845   20.798590 H          1 MOL1         0.0997
     140    C4      20.350139   19.420969   21.789736 C.3        1 MOL1        -0.1305
     141    H10     21.393389   19.081108   21.789721 H          1 MOL1         0.0997
     142    H11     20.364744   20.482989   21.515829 H          1 MOL1         0.0997
     143    C5      19.761555   19.263386   23.207389 C.3        1 MOL1        -0.2320
     144    H12     19.698242   18.205998   23.497120 H          1 MOL1         0.1008
     145    H13     20.390034   19.777264   23.946221 H          1 MOL1         0.1008
     146    H14     18.754524   19.696216   23.267080 H          1 MOL1         0.1008
@<TRIPOS>BOND
    1     1     2    1
    2     1     3    1
    3     1     4    1
    4     4     5    1
    5     4     6    1
    6     6     7    1
    7     4     8    1
    8     8     9    1
    9     8    10    1
   10    10    11    1
   11     8    12    1
   12    12    13    1
   13    12    14    1
   14    14    15    1
   15     1    16    1
   16    14    16    1
   17    14    17    1
   18    17    18    1
   19    17    19    1
   20    17    20    1
   21    20    21    1
   22    22    23    1
   23    22    24    1
   24    22    25    1
   25    25    26    1
   26    25    27    1
   27    27    28    1
   28    25    29    1
   29    29    30    1
   30    29    31    1
   31    31    32    1
   32     3    33    1
   33    29    33    1
   34    33    34    1
   35    33    35    1
   36    35    36    1
   37    22    37    1
   38    35    37    1
   39    35    38    1
   40    38    39    1
   41    38    40    1
   42    38    41    1
   43    41    42    1
   44    43    44    1
   45    43    45    1
   46    43    46    1
   47    46    47    1
   48    46    48    1
   49    48    49    1
   50    46    50    1
   51    50    51    1
   52    50    52    1
   53    52    53    1
   54    24    54    1
   55    50    54    1
   56    54    55    1
   57    54    56    1
   58    56    57    1
   59    43    58    1
   60    56    58    1
   61    56    59    1
   62    59    60    1
   63    59    61    1
   64    59    62    1
   65    62    63    1
   66    64    65    1
   67    64    66    1
   68    64    67    1
   69    67    68    1
   70    67    69    1
   71    69    70    1
   72    67    71    1
   73    71    72    1
   74    71    73    1
   75    73    74    1
   76    45    75    1
   77    71    75    1
   78    75    76    1
   79    75    77    1
   80    77    78    1
   81    64    79    1
   82    77    79    1
   83    77    80    1
   84    80    81    1
   85    80    82    1
   86    80    83    1
   87    83    84    1
   88    85    86    1
   89    85    87    1
   90    85    88    1
   91    88    89    1
   92    88    90    1
   93    90    91    1
   94    88    92    1
   95    92    93    1
   96    92    94    1
   97    94    95    1
   98    66    96    1
   99    92    96    1
  100    96    97    1
  101    96    98    1
  102    98    99    1
  103    85   100    1
  104    98   100    1
  105    98   101    1
  106   101   102    1
  107   101   103    1
  108   101   104    1
  109   104   105    1
  110   106   107    1
  111    12   108    1
  112   106   108    1
  113   106   109    1
  114   109   110    1
  115   109   111    1
  116   111   112    1
  117   109   113    1
  118   113   114    1
  119   113   115    1
  120   115   116    1
  121    87   117    1
  122   113   117    1
  123   117   118    1
  124   117   119    1
  125   119   120    1
  126   106   121    1
  127   119   121    1
  128   119   122    1
  129   122   123    1
  130   122   124    1
  131   122   125    1
  132   125   126    1
  133   127   128    1
  134   127   129    1
  135   127   130    1
  136   127   131    1
  137   131   132    1
  138   131   133    1
  139   131   134    1
  140   134   135    1
  141   134   136    1
  142   134   137    1
  143   137   138    1
  144   137   139    1
  145   137   140    1
  146   140   141    1
  147   140   142    1
  148   140   143    1
  149   143   144    1
  150   143   145    1
  151   143   146    1
@<TRIPOS>SUBSTRUCTURE
       1 MOL1            1 RESIDUE      1      MOL     
       2 MOL1          146 RESIDUE      1      MOL     
@<SCITEGIC>MOL_PROPERTY
VM2 Rank
SciTegic.value.IntegerValue
6

@<SCITEGIC>MOL_PROPERTY
Conf_Id
SciTegic.value.IntegerValue
20865

@<SCITEGIC>MOL_PROPERTY
Probability
SciTegic.value.DoubleValue
1.03

@<SCITEGIC>MOL_PROPERTY
Sum Probability
SciTegic.value.DoubleValue
9.09

@<SCITEGIC>MOL_PROPERTY
Delta G
SciTegic.value.DoubleValue
0.512

@<SCITEGIC>MOL_PROPERTY
G
SciTegic.value.DoubleValue
548.318

@<SCITEGIC>MOL_PROPERTY
E
SciTegic.value.DoubleValue
355.014

@<SCITEGIC>MOL_PROPERTY
-TS
SciTegic.value.DoubleValue
193.304

@<SCITEGIC>MOL_PROPERTY
U+W
SciTegic.value.DoubleValue
226.243

@<SCITEGIC>MOL_PROPERTY
U
SciTegic.value.DoubleValue
297.002

@<SCITEGIC>MOL_PROPERTY
W
SciTegic.value.DoubleValue
-70.759

@<SCITEGIC>MOL_PROPERTY
W(PB)
SciTegic.value.DoubleValue
-76.720

@<SCITEGIC>MOL_PROPERTY
W(SA)
SciTegic.value.DoubleValue
5.961

@<SCITEGIC>MOL_PROPERTY
Valence
SciTegic.value.DoubleValue
145.353

@<SCITEGIC>MOL_PROPERTY
Coulomb
SciTegic.value.DoubleValue
175.679

@<SCITEGIC>MOL_PROPERTY
VdW
SciTegic.value.DoubleValue
-24.030

@<SCITEGIC>MOL_PROPERTY
VdW6
SciTegic.value.DoubleValue
-173.684

@<SCITEGIC>MOL_PROPERTY
VdW12
SciTegic.value.DoubleValue
149.654

@<SCITEGIC>MOL_PROPERTY
Bond
SciTegic.value.DoubleValue
4.348

@<SCITEGIC>MOL_PROPERTY
Angle
SciTegic.value.DoubleValue
10.079

@<SCITEGIC>MOL_PROPERTY
Pdih
SciTegic.value.DoubleValue
130.925

@<SCITEGIC>MOL_PROPERTY
Idih
SciTegic.value.DoubleValue
0.000

@<SCITEGIC>MOL_PROPERTY
Tether
SciTegic.value.DoubleValue
0.000

@<TRIPOS>MOLECULE
CD_guest-s11_vm2_rndm.mol2 : vm2 host+ligand conformer 7
         146         151           2
SMALL
USER_CHARGES
 
@<TRIPOS>ATOM
       1    C1      16.187436   15.010097   20.566090 C.3        1 MOL1         0.2972
       2    H1      15.131203   14.894743   20.290381 H          1 MOL1         0.0751
       3    O1      16.516505   16.387461   20.849692 O.3        1 MOL1        -0.3740
       4    C2      16.557302   14.116286   21.778174 C.3        1 MOL1         0.1003
       5    H2      16.434600   13.073935   21.455954 H          1 MOL1         0.0783
       6    O2      15.703441   14.350147   22.907231 O.3        1 MOL1        -0.5519
       7    H3      15.874027   15.277661   23.209694 H          1 MOL1         0.3769
       8    C3      18.041838   14.321610   22.164608 C.3        1 MOL1         0.1053
       9    H4      18.153557   15.345946   22.547048 H          1 MOL1         0.0783
      10    O3      18.385926   13.381951   23.188996 O.3        1 MOL1        -0.5519
      11    H5      17.598997   13.349717   23.779674 H          1 MOL1         0.3769
      12    C4      18.984226   14.160376   20.936822 C.3        1 MOL1         0.1018
      13    H6      19.136999   13.093625   20.725104 H          1 MOL1         0.0783
      14    C5      18.446631   14.850012   19.652323 C.3        1 MOL1         0.1043
      15    H7      18.606264   15.929807   19.742091 H          1 MOL1         0.0783
      16    O4      17.033813   14.576188   19.481356 O.3        1 MOL1        -0.3740
      17    C6      19.183530   14.370354   18.385549 C.3        1 MOL1         0.0138
      18    H8      18.938844   13.316112   18.198747 H          1 MOL1         0.0794
      19    H9      20.267314   14.438516   18.550368 H          1 MOL1         0.0794
      20    O5      18.810736   15.181711   17.269997 O.3        1 MOL1        -0.5486
      21    H10     17.828815   15.157908   17.229408 H          1 MOL1         0.3769
      22    C7      15.030456   20.092442   21.872018 C.3        1 MOL1         0.2972
      23    H11     14.426269   20.951905   22.189149 H          1 MOL1         0.0751
      24    O6      16.279117   20.509487   21.280385 O.3        1 MOL1        -0.3740
      25    C8      15.329045   19.174097   23.083437 C.3        1 MOL1         0.1003
      26    H12     14.362375   18.835262   23.478345 H          1 MOL1         0.0783
      27    O7      16.040300   19.877646   24.115081 O.3        1 MOL1        -0.5519
      28    H13     15.913178   20.843066   23.949359 H          1 MOL1         0.3769
      29    C9      16.134776   17.930437   22.644971 C.3        1 MOL1         0.1053
      30    H14     17.131224   18.268107   22.340316 H          1 MOL1         0.0783
      31    O8      16.252496   17.040906   23.758173 O.3        1 MOL1        -0.5519
      32    H15     16.507213   17.621148   24.510920 H          1 MOL1         0.3769
      33    C10     15.488081   17.209590   21.434069 C.3        1 MOL1         0.1018
      34    H16     14.633336   16.616574   21.785553 H          1 MOL1         0.0783
      35    C11     15.032137   18.196857   20.322537 C.3        1 MOL1         0.1043
      36    H17     15.926944   18.571595   19.808296 H          1 MOL1         0.0783
      37    O9      14.306368   19.309916   20.899619 O.3        1 MOL1        -0.3740
      38    C12     14.125133   17.540719   19.257923 C.3        1 MOL1         0.0138
      39    H18     14.697115   16.767120   18.728561 H          1 MOL1         0.0794
      40    H19     13.841609   18.300994   18.517819 H          1 MOL1         0.0794
      41    O10     12.957626   16.968463   19.854293 O.3        1 MOL1        -0.5486
      42    H20     12.505185   17.699365   20.331515 H          1 MOL1         0.3769
      43    C13     18.483763   24.009424   20.841442 C.3        1 MOL1         0.2972
      44    H21     18.848156   25.016299   20.599530 H          1 MOL1         0.0751
      45    O11     19.562788   23.125237   21.204755 O.3        1 MOL1        -0.3740
      46    C14     17.448186   24.048370   21.995027 C.3        1 MOL1         0.1003
      47    H22     16.597108   24.645689   21.642697 H          1 MOL1         0.0783
      48    O12     17.984255   24.663615   23.175870 O.3        1 MOL1        -0.5519
      49    H23     18.794450   24.155063   23.433813 H          1 MOL1         0.3769
      50    C15     16.928444   22.623514   22.308252 C.3        1 MOL1         0.1053
      51    H24     17.765710   22.035018   22.707937 H          1 MOL1         0.0783
      52    O13     15.890336   22.718115   23.290018 O.3        1 MOL1        -0.5519
      53    H25     16.202444   23.405228   23.922297 H          1 MOL1         0.3769
      54    C16     16.411396   21.921501   21.019642 C.3        1 MOL1         0.1018
      55    H26     15.450775   22.361795   20.720281 H          1 MOL1         0.0783
      56    C17     17.405114   22.056013   19.835435 C.3        1 MOL1         0.1043
      57    H27     18.274630   21.416050   20.030663 H          1 MOL1         0.0783
      58    O14     17.815964   23.439007   19.697542 O.3        1 MOL1        -0.3740
      59    C18     16.771799   21.626020   18.495579 C.3        1 MOL1         0.0138
      60    H28     15.910640   22.271879   18.277985 H          1 MOL1         0.0794
      61    H29     16.402687   20.595753   18.582649 H          1 MOL1         0.0794
      62    O15     17.738908   21.712645   17.446846 O.3        1 MOL1        -0.5486
      63    H30     18.098734   22.626322   17.487601 H          1 MOL1         0.3769
      64    C19     23.563212   22.848726   22.019412 C.3        1 MOL1         0.2972
      65    H31     24.628625   22.965361   22.256469 H          1 MOL1         0.0751
      66    O16     23.261289   21.522017   21.536229 O.3        1 MOL1        -0.3740
      67    C20     22.697215   23.146531   23.269502 C.3        1 MOL1         0.1003
      68    H32     22.860004   24.198664   23.537446 H          1 MOL1         0.0783
      69    O17     23.061362   22.317058   24.383754 O.3        1 MOL1        -0.5519
      70    H33     23.739998   21.673471   24.062713 H          1 MOL1         0.3769
      71    C21     21.200105   22.962051   22.943119 C.3        1 MOL1         0.1053
      72    H34     21.037105   21.895936   22.760341 H          1 MOL1         0.0783
      73    O18     20.418365   23.375128   24.066801 O.3        1 MOL1        -0.5519
      74    H35     20.876113   22.982487   24.844308 H          1 MOL1         0.3769
      75    C22     20.776567   23.744114   21.672905 C.3        1 MOL1         0.1018
      76    H36     20.623841   24.796816   21.946169 H          1 MOL1         0.0783
      77    C23     21.805719   23.636970   20.508847 C.3        1 MOL1         0.1043
      78    H37     21.695879   22.646772   20.047470 H          1 MOL1         0.0783
      79    O19     23.161959   23.789228   21.001342 O.3        1 MOL1        -0.3740
      80    C24     21.584143   24.687480   19.398313 C.3        1 MOL1         0.0138
      81    H38     20.606710   24.512393   18.929548 H          1 MOL1         0.0794
      82    H39     22.348065   24.547486   18.621775 H          1 MOL1         0.0794
      83    O20     21.647986   26.016287   19.923821 O.3        1 MOL1        -0.5486
      84    H40     22.530795   26.103372   20.347736 H          1 MOL1         0.3769
      85    C25     24.936529   17.780949   20.950727 C.3        1 MOL1         0.2972
      86    H41     25.578085   16.924702   20.705832 H          1 MOL1         0.0751
      87    O21     23.565700   17.371950   21.143233 O.3        1 MOL1        -0.3740
      88    C26     25.459366   18.527017   22.209158 C.3        1 MOL1         0.1003
      89    H42     26.469846   18.883131   21.969678 H          1 MOL1         0.0783
      90    O22     25.533964   17.670681   23.358685 O.3        1 MOL1        -0.5519
      91    H43     24.605902   17.400504   23.575576 H          1 MOL1         0.3769
      92    C27     24.584963   19.764106   22.523240 C.3        1 MOL1         0.1053
      93    H44     23.597968   19.407171   22.848861 H          1 MOL1         0.0783
      94    O23     25.202564   20.512973   23.574084 O.3        1 MOL1        -0.5519
      95    H45     25.519839   19.838497   24.216835 H          1 MOL1         0.3769
      96    C28     24.386629   20.662259   21.273208 C.3        1 MOL1         0.1018
      97    H46     25.302403   21.236522   21.078790 H          1 MOL1         0.0783
      98    C29     24.034397   19.846515   20.001769 C.3        1 MOL1         0.1043
      99    H47     23.003671   19.485558   20.091080 H          1 MOL1         0.0783
     100    O24     24.952080   18.732757   19.867181 O.3        1 MOL1        -0.3740
     101    C30     24.134114   20.690758   18.715237 C.3        1 MOL1         0.0138
     102    H48     25.168034   21.038370   18.587429 H          1 MOL1         0.0794
     103    H49     23.493309   21.577048   18.812244 H          1 MOL1         0.0794
     104    O25     23.725186   19.907541   17.591115 O.3        1 MOL1        -0.5486
     105    H50     24.304482   19.111951   17.597068 H          1 MOL1         0.3769
     106    C31     21.204496   14.064302   21.980855 C.3        1 MOL1         0.2972
     107    H51     20.809978   13.086795   22.286477 H          1 MOL1         0.0751
     108    O26     20.230215   14.821264   21.235492 O.3        1 MOL1        -0.3740
     109    C32     21.647872   14.883364   23.222930 C.3        1 MOL1         0.1003
     110    H52     22.427200   14.301094   23.731672 H          1 MOL1         0.0783
     111    O27     20.559963   15.110508   24.133314 O.3        1 MOL1        -0.5519
     112    H53     19.865285   14.437999   23.933124 H          1 MOL1         0.3769
     113    C33     22.256960   16.238680   22.800024 C.3        1 MOL1         0.1053
     114    H54     21.449833   16.844632   22.372940 H          1 MOL1         0.0783
     115    O28     22.793741   16.891911   23.954462 O.3        1 MOL1        -0.5519
     116    H55     22.092181   16.798114   24.637638 H          1 MOL1         0.3769
     117    C34     23.353776   16.067983   21.720755 C.3        1 MOL1         0.1018
     118    H56     24.260833   15.677518   22.200445 H          1 MOL1         0.0783
     119    C35     22.915497   15.111862   20.575868 C.3        1 MOL1         0.1043
     120    H57     22.153140   15.621534   19.971831 H          1 MOL1         0.0783
     121    O29     22.362314   13.893630   21.135279 O.3        1 MOL1        -0.3740
     122    C36     24.068913   14.713879   19.628077 C.3        1 MOL1         0.0138
     123    H58     24.419746   15.608241   19.096399 H          1 MOL1         0.0794
     124    H59     23.680906   14.017595   18.872557 H          1 MOL1         0.0794
     125    O30     25.148966   14.113307   20.348508 O.3        1 MOL1        -0.5486
     126    H60     24.770987   13.334485   20.814425 H          1 MOL1         0.3769
     127    N1      20.828204   19.816476   17.235980 N.4        1 MOL1        -0.5919
     128    H1      20.512719   19.050067   16.634719 H          1 MOL1         0.3682
     129    H2      20.629933   20.689700   16.737570 H          1 MOL1         0.3682
     130    H3      21.856400   19.748198   17.317312 H          1 MOL1         0.3682
     131    C1      20.153784   19.790443   18.589944 C.3        1 MOL1         0.0252
     132    H4      19.099687   20.036163   18.439488 H          1 MOL1         0.0971
     133    H5      20.605481   20.574999   19.202136 H          1 MOL1         0.0971
     134    C2      20.253239   18.432303   19.308052 C.3        1 MOL1        -0.1369
     135    H6      19.765144   17.667726   18.689358 H          1 MOL1         0.0997
     136    H7      21.303683   18.129315   19.406535 H          1 MOL1         0.0997
     137    C3      19.583286   18.467601   20.701459 C.3        1 MOL1        -0.1329
     138    H8      19.562142   17.452861   21.118687 H          1 MOL1         0.0997
     139    H9      18.535986   18.781456   20.595063 H          1 MOL1         0.0997
     140    C4      20.313401   19.402706   21.691575 C.3        1 MOL1        -0.1305
     141    H10     21.370565   19.114784   21.763566 H          1 MOL1         0.0997
     142    H11     20.290987   20.432515   21.315281 H          1 MOL1         0.0997
     143    C5      19.683965   19.359474   23.100043 C.3        1 MOL1        -0.2320
     144    H12     18.669570   19.776644   23.091395 H          1 MOL1         0.1008
     145    H13     19.630379   18.330948   23.481347 H          1 MOL1         0.1008
     146    H14     20.278622   19.946932   23.811147 H          1 MOL1         0.1008
@<TRIPOS>BOND
    1     1     2    1
    2     1     3    1
    3     1     4    1
    4     4     5    1
    5     4     6    1
    6     6     7    1
    7     4     8    1
    8     8     9    1
    9     8    10    1
   10    10    11    1
   11     8    12    1
   12    12    13    1
   13    12    14    1
   14    14    15    1
   15     1    16    1
   16    14    16    1
   17    14    17    1
   18    17    18    1
   19    17    19    1
   20    17    20    1
   21    20    21    1
   22    22    23    1
   23    22    24    1
   24    22    25    1
   25    25    26    1
   26    25    27    1
   27    27    28    1
   28    25    29    1
   29    29    30    1
   30    29    31    1
   31    31    32    1
   32     3    33    1
   33    29    33    1
   34    33    34    1
   35    33    35    1
   36    35    36    1
   37    22    37    1
   38    35    37    1
   39    35    38    1
   40    38    39    1
   41    38    40    1
   42    38    41    1
   43    41    42    1
   44    43    44    1
   45    43    45    1
   46    43    46    1
   47    46    47    1
   48    46    48    1
   49    48    49    1
   50    46    50    1
   51    50    51    1
   52    50    52    1
   53    52    53    1
   54    24    54    1
   55    50    54    1
   56    54    55    1
   57    54    56    1
   58    56    57    1
   59    43    58    1
   60    56    58    1
   61    56    59    1
   62    59    60    1
   63    59    61    1
   64    59    62    1
   65    62    63    1
   66    64    65    1
   67    64    66    1
   68    64    67    1
   69    67    68    1
   70    67    69    1
   71    69    70    1
   72    67    71    1
   73    71    72    1
   74    71    73    1
   75    73    74    1
   76    45    75    1
   77    71    75    1
   78    75    76    1
   79    75    77    1
   80    77    78    1
   81    64    79    1
   82    77    79    1
   83    77    80    1
   84    80    81    1
   85    80    82    1
   86    80    83    1
   87    83    84    1
   88    85    86    1
   89    85    87    1
   90    85    88    1
   91    88    89    1
   92    88    90    1
   93    90    91    1
   94    88    92    1
   95    92    93    1
   96    92    94    1
   97    94    95    1
   98    66    96    1
   99    92    96    1
  100    96    97    1
  101    96    98    1
  102    98    99    1
  103    85   100    1
  104    98   100    1
  105    98   101    1
  106   101   102    1
  107   101   103    1
  108   101   104    1
  109   104   105    1
  110   106   107    1
  111    12   108    1
  112   106   108    1
  113   106   109    1
  114   109   110    1
  115   109   111    1
  116   111   112    1
  117   109   113    1
  118   113   114    1
  119   113   115    1
  120   115   116    1
  121    87   117    1
  122   113   117    1
  123   117   118    1
  124   117   119    1
  125   119   120    1
  126   106   121    1
  127   119   121    1
  128   119   122    1
  129   122   123    1
  130   122   124    1
  131   122   125    1
  132   125   126    1
  133   127   128    1
  134   127   129    1
  135   127   130    1
  136   127   131    1
  137   131   132    1
  138   131   133    1
  139   131   134    1
  140   134   135    1
  141   134   136    1
  142   134   137    1
  143   137   138    1
  144   137   139    1
  145   137   140    1
  146   140   141    1
  147   140   142    1
  148   140   143    1
  149   143   144    1
  150   143   145    1
  151   143   146    1
@<TRIPOS>SUBSTRUCTURE
       1 MOL1            1 RESIDUE      1      MOL     
       2 MOL1          146 RESIDUE      1      MOL     
@<SCITEGIC>MOL_PROPERTY
VM2 Rank
SciTegic.value.IntegerValue
7

@<SCITEGIC>MOL_PROPERTY
Conf_Id
SciTegic.value.IntegerValue
19477

@<SCITEGIC>MOL_PROPERTY
Probability
SciTegic.value.DoubleValue
1.03

@<SCITEGIC>MOL_PROPERTY
Sum Probability
SciTegic.value.DoubleValue
10.12

@<SCITEGIC>MOL_PROPERTY
Delta G
SciTegic.value.DoubleValue
0.513

@<SCITEGIC>MOL_PROPERTY
G
SciTegic.value.DoubleValue
548.319

@<SCITEGIC>MOL_PROPERTY
E
SciTegic.value.DoubleValue
354.014

@<SCITEGIC>MOL_PROPERTY
-TS
SciTegic.value.DoubleValue
194.305

@<SCITEGIC>MOL_PROPERTY
U+W
SciTegic.value.DoubleValue
225.243

@<SCITEGIC>MOL_PROPERTY
U
SciTegic.value.DoubleValue
295.065

@<SCITEGIC>MOL_PROPERTY
W
SciTegic.value.DoubleValue
-69.804

@<SCITEGIC>MOL_PROPERTY
W(PB)
SciTegic.value.DoubleValue
-75.734

@<SCITEGIC>MOL_PROPERTY
W(SA)
SciTegic.value.DoubleValue
5.930

@<SCITEGIC>MOL_PROPERTY
Valence
SciTegic.value.DoubleValue
145.348

@<SCITEGIC>MOL_PROPERTY
Coulomb
SciTegic.value.DoubleValue
173.204

@<SCITEGIC>MOL_PROPERTY
VdW
SciTegic.value.DoubleValue
-23.486

@<SCITEGIC>MOL_PROPERTY
VdW6
SciTegic.value.DoubleValue
-175.329

@<SCITEGIC>MOL_PROPERTY
VdW12
SciTegic.value.DoubleValue
151.842

@<SCITEGIC>MOL_PROPERTY
Bond
SciTegic.value.DoubleValue
4.421

@<SCITEGIC>MOL_PROPERTY
Angle
SciTegic.value.DoubleValue
10.150

@<SCITEGIC>MOL_PROPERTY
Pdih
SciTegic.value.DoubleValue
130.778

@<SCITEGIC>MOL_PROPERTY
Idih
SciTegic.value.DoubleValue
0.000

@<SCITEGIC>MOL_PROPERTY
Tether
SciTegic.value.DoubleValue
0.000

@<TRIPOS>MOLECULE
CD_guest-s11_vm2_rndm.mol2 : vm2 host+ligand conformer 8
         146         151           2
SMALL
USER_CHARGES
 
@<TRIPOS>ATOM
       1    C1      16.162398   14.995196   20.631271 C.3        1 MOL1         0.2972
       2    H1      15.100911   14.886115   20.373969 H          1 MOL1         0.0751
       3    O1      16.506708   16.368853   20.910794 O.3        1 MOL1        -0.3740
       4    C2      16.547235   14.105108   21.840373 C.3        1 MOL1         0.1003
       5    H2      16.414836   13.061570   21.525974 H          1 MOL1         0.0783
       6    O2      15.712735   14.350921   22.981444 O.3        1 MOL1        -0.5519
       7    H3      15.865145   15.290577   23.255220 H          1 MOL1         0.3769
       8    C3      18.038529   14.307413   22.201180 C.3        1 MOL1         0.1053
       9    H4      18.158067   15.331596   22.582096 H          1 MOL1         0.0783
      10    O3      18.398897   13.367278   23.219416 O.3        1 MOL1        -0.5519
      11    H5      17.624016   13.340028   23.826096 H          1 MOL1         0.3769
      12    C4      18.961110   14.143991   20.958610 C.3        1 MOL1         0.1018
      13    H6      19.116422   13.076573   20.752081 H          1 MOL1         0.0783
      14    C5      18.403214   14.821007   19.676014 C.3        1 MOL1         0.1043
      15    H7      18.572322   15.901117   19.750109 H          1 MOL1         0.0783
      16    O4      16.986494   14.552624   19.534062 O.3        1 MOL1        -0.3740
      17    C6      19.110420   14.315297   18.401916 C.3        1 MOL1         0.0138
      18    H8      18.898194   13.246037   18.268591 H          1 MOL1         0.0794
      19    H9      20.196244   14.428436   18.522710 H          1 MOL1         0.0794
      20    O5      18.665277   15.061241   17.267118 O.3        1 MOL1        -0.5486
      21    H10     17.684300   14.998827   17.268438 H          1 MOL1         0.3769
      22    C7      15.027908   20.102356   21.806169 C.3        1 MOL1         0.2972
      23    H11     14.424761   20.976516   22.081646 H          1 MOL1         0.0751
      24    O6      16.302484   20.488127   21.249189 O.3        1 MOL1        -0.3740
      25    C8      15.273968   19.208623   23.047842 C.3        1 MOL1         0.1003
      26    H12     14.290565   18.889006   23.416689 H          1 MOL1         0.0783
      27    O7      15.959315   19.928014   24.086256 O.3        1 MOL1        -0.5519
      28    H13     15.832237   20.890281   23.903753 H          1 MOL1         0.3769
      29    C9      16.081108   17.947811   22.665090 C.3        1 MOL1         0.1053
      30    H14     17.092005   18.269220   22.392383 H          1 MOL1         0.0783
      31    O8      16.150714   17.079094   23.798837 O.3        1 MOL1        -0.5519
      32    H15     16.383591   17.671601   24.549045 H          1 MOL1         0.3769
      33    C10     15.467530   17.208374   21.448188 C.3        1 MOL1         0.1018
      34    H16     14.599311   16.628413   21.788373 H          1 MOL1         0.0783
      35    C11     15.050903   18.171625   20.300881 C.3        1 MOL1         0.1043
      36    H17     15.965255   18.528667   19.809908 H          1 MOL1         0.0783
      37    O9      14.325837   19.308921   20.827982 O.3        1 MOL1        -0.3740
      38    C12     14.183703   17.496202   19.211541 C.3        1 MOL1         0.0138
      39    H18     14.819312   16.808007   18.637999 H          1 MOL1         0.0794
      40    H19     13.830068   18.269305   18.516249 H          1 MOL1         0.0794
      41    O10     13.073729   16.781151   19.768837 O.3        1 MOL1        -0.5486
      42    H20     12.527250   16.450205   19.022795 H          1 MOL1         0.3769
      43    C13     18.539035   23.986348   20.849205 C.3        1 MOL1         0.2972
      44    H21     18.900720   24.991822   20.597566 H          1 MOL1         0.0751
      45    O11     19.603905   23.135401   21.311334 O.3        1 MOL1        -0.3740
      46    C14     17.450225   24.042383   21.950673 C.3        1 MOL1         0.1003
      47    H22     16.619132   24.640398   21.554639 H          1 MOL1         0.0783
      48    O12     17.943312   24.664591   23.147921 O.3        1 MOL1        -0.5519
      49    H23     18.770142   24.187681   23.413793 H          1 MOL1         0.3769
      50    C15     16.910295   22.624198   22.261991 C.3        1 MOL1         0.1053
      51    H24     17.721623   22.043648   22.722844 H          1 MOL1         0.0783
      52    O13     15.819443   22.745130   23.181756 O.3        1 MOL1        -0.5519
      53    H25     16.100856   23.443469   23.816234 H          1 MOL1         0.3769
      54    C16     16.470785   21.890740   20.961313 C.3        1 MOL1         0.1018
      55    H26     15.539696   22.332292   20.581540 H          1 MOL1         0.0783
      56    C17     17.552218   21.982130   19.852298 C.3        1 MOL1         0.1043
      57    H27     18.411440   21.368213   20.148110 H          1 MOL1         0.0783
      58    O14     17.951817   23.364751   19.686890 O.3        1 MOL1        -0.3740
      59    C18     17.043613   21.474772   18.485917 C.3        1 MOL1         0.0138
      60    H28     16.217980   22.114331   18.146294 H          1 MOL1         0.0794
      61    H29     16.650405   20.456498   18.601266 H          1 MOL1         0.0794
      62    O15     18.109500   21.481407   17.531637 O.3        1 MOL1        -0.5486
      63    H30     18.464997   22.398212   17.536258 H          1 MOL1         0.3769
      64    C19     23.595076   22.888088   22.068266 C.3        1 MOL1         0.2972
      65    H31     24.666534   22.991051   22.283467 H          1 MOL1         0.0751
      66    O16     23.255556   21.550904   21.645975 O.3        1 MOL1        -0.3740
      67    C20     22.759515   23.240449   23.323193 C.3        1 MOL1         0.1003
      68    H32     22.941693   24.297920   23.555078 H          1 MOL1         0.0783
      69    O17     23.144731   22.436433   24.449341 O.3        1 MOL1        -0.5519
      70    H33     23.727273   21.713643   24.107569 H          1 MOL1         0.3769
      71    C21     21.252580   23.065274   23.032526 C.3        1 MOL1         0.1053
      72    H34     21.067009   21.992673   22.912900 H          1 MOL1         0.0783
      73    O18     20.490098   23.553256   24.140112 O.3        1 MOL1        -0.5519
      74    H35     20.937150   23.183658   24.934453 H          1 MOL1         0.3769
      75    C22     20.815629   23.787912   21.731226 C.3        1 MOL1         0.1018
      76    H36     20.653599   24.849477   21.961518 H          1 MOL1         0.0783
      77    C23     21.827566   23.641371   20.556282 C.3        1 MOL1         0.1043
      78    H37     21.702349   22.639140   20.125678 H          1 MOL1         0.0783
      79    O19     23.191292   23.797513   21.024600 O.3        1 MOL1        -0.3740
      80    C24     21.600876   24.659653   19.416942 C.3        1 MOL1         0.0138
      81    H38     20.620868   24.473238   18.958384 H          1 MOL1         0.0794
      82    H39     22.359738   24.495170   18.640218 H          1 MOL1         0.0794
      83    O20     21.671079   26.003138   19.902642 O.3        1 MOL1        -0.5486
      84    H40     22.557513   26.101331   20.316454 H          1 MOL1         0.3769
      85    C25     24.883069   17.817089   20.885532 C.3        1 MOL1         0.2972
      86    H41     25.521218   16.972780   20.594673 H          1 MOL1         0.0751
      87    O21     23.520917   17.392890   21.103734 O.3        1 MOL1        -0.3740
      88    C26     25.440590   18.526136   22.152637 C.3        1 MOL1         0.1003
      89    H42     26.443540   18.892179   21.897177 H          1 MOL1         0.0783
      90    O22     25.547105   17.636408   23.273891 O.3        1 MOL1        -0.5519
      91    H43     24.624703   17.364639   23.511751 H          1 MOL1         0.3769
      92    C27     24.571861   19.749927   22.526960 C.3        1 MOL1         0.1053
      93    H44     23.589927   19.380255   22.853240 H          1 MOL1         0.0783
      94    O23     25.196605   20.468602   23.594898 O.3        1 MOL1        -0.5519
      95    H45     25.517750   19.776961   24.216631 H          1 MOL1         0.3769
      96    C28     24.355747   20.686671   21.311161 C.3        1 MOL1         0.1018
      97    H46     25.275219   21.250962   21.105195 H          1 MOL1         0.0783
      98    C29     23.947689   19.911236   20.031868 C.3        1 MOL1         0.1043
      99    H47     22.920971   19.549599   20.155072 H          1 MOL1         0.0783
     100    O24     24.856238   18.800129   19.829155 O.3        1 MOL1        -0.3740
     101    C30     23.993069   20.790507   18.765865 C.3        1 MOL1         0.0138
     102    H48     25.036645   21.042372   18.534190 H          1 MOL1         0.0794
     103    H49     23.458189   21.729812   18.954115 H          1 MOL1         0.0794
     104    O25     23.384769   20.096943   17.674027 O.3        1 MOL1        -0.5486
     105    H50     23.858496   19.239588   17.595723 H          1 MOL1         0.3769
     106    C31     21.204635   14.053823   21.946135 C.3        1 MOL1         0.2972
     107    H51     20.825125   13.068952   22.247299 H          1 MOL1         0.0751
     108    O26     20.206611   14.813850   21.236294 O.3        1 MOL1        -0.3740
     109    C32     21.672809   14.857670   23.188828 C.3        1 MOL1         0.1003
     110    H52     22.470546   14.275414   23.668211 H          1 MOL1         0.0783
     111    O27     20.607492   15.061643   24.130916 O.3        1 MOL1        -0.5519
     112    H53     19.904820   14.398393   23.927302 H          1 MOL1         0.3769
     113    C33     22.257941   16.224180   22.769710 C.3        1 MOL1         0.1053
     114    H54     21.434392   16.825937   22.367868 H          1 MOL1         0.0783
     115    O28     22.814635   16.868097   23.920102 O.3        1 MOL1        -0.5519
     116    H55     22.131139   16.755499   24.618566 H          1 MOL1         0.3769
     117    C34     23.330935   16.077831   21.663462 C.3        1 MOL1         0.1018
     118    H56     24.251032   15.684928   22.115304 H          1 MOL1         0.0783
     119    C35     22.871348   15.136851   20.514497 C.3        1 MOL1         0.1043
     120    H57     22.090309   15.650414   19.938002 H          1 MOL1         0.0783
     121    O29     22.341820   13.905442   21.068725 O.3        1 MOL1        -0.3740
     122    C36     24.003565   14.762844   19.532002 C.3        1 MOL1         0.0138
     123    H58     24.333847   15.668097   19.005654 H          1 MOL1         0.0794
     124    H59     23.601999   14.075112   18.775733 H          1 MOL1         0.0794
     125    O30     25.106186   14.160163   20.215549 O.3        1 MOL1        -0.5486
     126    H60     24.746141   13.371461   20.679039 H          1 MOL1         0.3769
     127    N1      19.293575   18.861855   16.881514 N.4        1 MOL1        -0.5919
     128    H1      18.943929   19.834929   16.895832 H          1 MOL1         0.3682
     129    H2      20.266654   18.889227   16.562276 H          1 MOL1         0.3682
     130    H3      18.750085   18.355186   16.176077 H          1 MOL1         0.3682
     131    C1      19.162082   18.233858   18.251130 C.3        1 MOL1         0.0252
     132    H4      19.424214   17.175381   18.175159 H          1 MOL1         0.0971
     133    H5      18.112089   18.310635   18.545692 H          1 MOL1         0.0971
     134    C2      20.048858   18.917443   19.304412 C.3        1 MOL1        -0.1369
     135    H6      21.084597   18.572303   19.189262 H          1 MOL1         0.0997
     136    H7      20.052767   20.001325   19.127421 H          1 MOL1         0.0997
     137    C3      19.542671   18.639375   20.735266 C.3        1 MOL1        -0.1329
     138    H8      19.593328   17.564845   20.955232 H          1 MOL1         0.0997
     139    H9      18.486420   18.929016   20.798377 H          1 MOL1         0.0997
     140    C4      20.349158   19.426299   21.788375 C.3        1 MOL1        -0.1305
     141    H10     21.393020   19.088320   21.787699 H          1 MOL1         0.0997
     142    H11     20.361807   20.488159   21.513739 H          1 MOL1         0.0997
     143    C5      19.761847   19.268838   23.206595 C.3        1 MOL1        -0.2320
     144    H12     18.754559   19.701023   23.266940 H          1 MOL1         0.1008
     145    H13     19.699420   18.211532   23.496819 H          1 MOL1         0.1008
     146    H14     20.390551   19.783427   23.944738 H          1 MOL1         0.1008
@<TRIPOS>BOND
    1     1     2    1
    2     1     3    1
    3     1     4    1
    4     4     5    1
    5     4     6    1
    6     6     7    1
    7     4     8    1
    8     8     9    1
    9     8    10    1
   10    10    11    1
   11     8    12    1
   12    12    13    1
   13    12    14    1
   14    14    15    1
   15     1    16    1
   16    14    16    1
   17    14    17    1
   18    17    18    1
   19    17    19    1
   20    17    20    1
   21    20    21    1
   22    22    23    1
   23    22    24    1
   24    22    25    1
   25    25    26    1
   26    25    27    1
   27    27    28    1
   28    25    29    1
   29    29    30    1
   30    29    31    1
   31    31    32    1
   32     3    33    1
   33    29    33    1
   34    33    34    1
   35    33    35    1
   36    35    36    1
   37    22    37    1
   38    35    37    1
   39    35    38    1
   40    38    39    1
   41    38    40    1
   42    38    41    1
   43    41    42    1
   44    43    44    1
   45    43    45    1
   46    43    46    1
   47    46    47    1
   48    46    48    1
   49    48    49    1
   50    46    50    1
   51    50    51    1
   52    50    52    1
   53    52    53    1
   54    24    54    1
   55    50    54    1
   56    54    55    1
   57    54    56    1
   58    56    57    1
   59    43    58    1
   60    56    58    1
   61    56    59    1
   62    59    60    1
   63    59    61    1
   64    59    62    1
   65    62    63    1
   66    64    65    1
   67    64    66    1
   68    64    67    1
   69    67    68    1
   70    67    69    1
   71    69    70    1
   72    67    71    1
   73    71    72    1
   74    71    73    1
   75    73    74    1
   76    45    75    1
   77    71    75    1
   78    75    76    1
   79    75    77    1
   80    77    78    1
   81    64    79    1
   82    77    79    1
   83    77    80    1
   84    80    81    1
   85    80    82    1
   86    80    83    1
   87    83    84    1
   88    85    86    1
   89    85    87    1
   90    85    88    1
   91    88    89    1
   92    88    90    1
   93    90    91    1
   94    88    92    1
   95    92    93    1
   96    92    94    1
   97    94    95    1
   98    66    96    1
   99    92    96    1
  100    96    97    1
  101    96    98    1
  102    98    99    1
  103    85   100    1
  104    98   100    1
  105    98   101    1
  106   101   102    1
  107   101   103    1
  108   101   104    1
  109   104   105    1
  110   106   107    1
  111    12   108    1
  112   106   108    1
  113   106   109    1
  114   109   110    1
  115   109   111    1
  116   111   112    1
  117   109   113    1
  118   113   114    1
  119   113   115    1
  120   115   116    1
  121    87   117    1
  122   113   117    1
  123   117   118    1
  124   117   119    1
  125   119   120    1
  126   106   121    1
  127   119   121    1
  128   119   122    1
  129   122   123    1
  130   122   124    1
  131   122   125    1
  132   125   126    1
  133   127   128    1
  134   127   129    1
  135   127   130    1
  136   127   131    1
  137   131   132    1
  138   131   133    1
  139   131   134    1
  140   134   135    1
  141   134   136    1
  142   134   137    1
  143   137   138    1
  144   137   139    1
  145   137   140    1
  146   140   141    1
  147   140   142    1
  148   140   143    1
  149   143   144    1
  150   143   145    1
  151   143   146    1
@<TRIPOS>SUBSTRUCTURE
       1 MOL1            1 RESIDUE      1      MOL     
       2 MOL1          146 RESIDUE      1      MOL     
@<SCITEGIC>MOL_PROPERTY
VM2 Rank
SciTegic.value.IntegerValue
8

@<SCITEGIC>MOL_PROPERTY
Conf_Id
SciTegic.value.IntegerValue
18273

@<SCITEGIC>MOL_PROPERTY
Probability
SciTegic.value.DoubleValue
1.02

@<SCITEGIC>MOL_PROPERTY
Sum Probability
SciTegic.value.DoubleValue
11.14

@<SCITEGIC>MOL_PROPERTY
Delta G
SciTegic.value.DoubleValue
0.517

@<SCITEGIC>MOL_PROPERTY
G
SciTegic.value.DoubleValue
548.323

@<SCITEGIC>MOL_PROPERTY
E
SciTegic.value.DoubleValue
355.016

@<SCITEGIC>MOL_PROPERTY
-TS
SciTegic.value.DoubleValue
193.307

@<SCITEGIC>MOL_PROPERTY
U+W
SciTegic.value.DoubleValue
226.245

@<SCITEGIC>MOL_PROPERTY
U
SciTegic.value.DoubleValue
297.113

@<SCITEGIC>MOL_PROPERTY
W
SciTegic.value.DoubleValue
-70.868

@<SCITEGIC>MOL_PROPERTY
W(PB)
SciTegic.value.DoubleValue
-76.816

@<SCITEGIC>MOL_PROPERTY
W(SA)
SciTegic.value.DoubleValue
5.948

@<SCITEGIC>MOL_PROPERTY
Valence
SciTegic.value.DoubleValue
145.313

@<SCITEGIC>MOL_PROPERTY
Coulomb
SciTegic.value.DoubleValue
175.828

@<SCITEGIC>MOL_PROPERTY
VdW
SciTegic.value.DoubleValue
-24.029

@<SCITEGIC>MOL_PROPERTY
VdW6
SciTegic.value.DoubleValue
-173.719

@<SCITEGIC>MOL_PROPERTY
VdW12
SciTegic.value.DoubleValue
149.690

@<SCITEGIC>MOL_PROPERTY
Bond
SciTegic.value.DoubleValue
4.348

@<SCITEGIC>MOL_PROPERTY
Angle
SciTegic.value.DoubleValue
10.078

@<SCITEGIC>MOL_PROPERTY
Pdih
SciTegic.value.DoubleValue
130.887

@<SCITEGIC>MOL_PROPERTY
Idih
SciTegic.value.DoubleValue
0.000

@<SCITEGIC>MOL_PROPERTY
Tether
SciTegic.value.DoubleValue
0.000

