@<TRIPOS>MOLECULE
CD_guest-s21_vm2_rndm.mol2 : vm2 host+ligand conformer 1
         148         153           2
SMALL
USER_CHARGES
 
@<TRIPOS>ATOM
       1    C1      16.339575   15.162069   21.017991 C.3        1 MOL1         0.2972
       2    H1      15.284756   14.966913   20.788022 H          1 MOL1         0.0751
       3    O1      16.562385   16.542537   21.370148 O.3        1 MOL1        -0.3740
       4    C2      16.796568   14.269935   22.201663 C.3        1 MOL1         0.1003
       5    H2      16.621235   13.226872   21.907808 H          1 MOL1         0.0783
       6    O2      16.048812   14.553116   23.392426 O.3        1 MOL1        -0.5519
       7    H3      16.515301   14.055882   24.101537 H          1 MOL1         0.3769
       8    C3      18.309433   14.433749   22.480042 C.3        1 MOL1         0.1053
       9    H4      18.482909   15.447970   22.865720 H          1 MOL1         0.0783
      10    O3      18.722189   13.459336   23.446621 O.3        1 MOL1        -0.5519
      11    H5      19.702499   13.551312   23.546896 H          1 MOL1         0.3769
      12    C4      19.133173   14.261061   21.181513 C.3        1 MOL1         0.1018
      13    H6      19.103480   13.205721   20.879567 H          1 MOL1         0.0783
      14    C5      18.578230   15.128690   20.022834 C.3        1 MOL1         0.1043
      15    H7      18.740078   16.188921   20.256825 H          1 MOL1         0.0783
      16    O4      17.164679   14.844755   19.876315 O.3        1 MOL1        -0.3740
      17    C6      19.255993   14.807783   18.673712 C.3        1 MOL1         0.0138
      18    H8      19.140162   13.738035   18.454901 H          1 MOL1         0.0794
      19    H9      20.329660   15.019846   18.747723 H          1 MOL1         0.0794
      20    O5      18.677832   15.594232   17.630730 O.3        1 MOL1        -0.5486
      21    H10     17.708097   15.452686   17.694221 H          1 MOL1         0.3769
      22    C7      14.703794   20.276268   21.281262 C.3        1 MOL1         0.2972
      23    H11     13.983444   21.095953   21.165264 H          1 MOL1         0.0751
      24    O6      16.030291   20.764880   21.551256 O.3        1 MOL1        -0.3740
      25    C8      14.286660   19.347547   22.450761 C.3        1 MOL1         0.1003
      26    H12     13.286751   18.958544   22.218569 H          1 MOL1         0.0783
      27    O7      14.238695   20.061134   23.694524 O.3        1 MOL1        -0.5519
      28    H13     14.113359   19.362300   24.375434 H          1 MOL1         0.3769
      29    C9      15.248706   18.141895   22.577885 C.3        1 MOL1         0.1053
      30    H14     16.229049   18.513796   22.906990 H          1 MOL1         0.0783
      31    O8      14.725658   17.218053   23.540360 O.3        1 MOL1        -0.5519
      32    H15     15.293716   16.408710   23.495900 H          1 MOL1         0.3769
      33    C10     15.432317   17.424732   21.218447 C.3        1 MOL1         0.1018
      34    H16     14.508850   16.876810   20.989662 H          1 MOL1         0.0783
      35    C11     15.737062   18.418423   20.064177 C.3        1 MOL1         0.1043
      36    H17     16.740975   18.835798   20.211084 H          1 MOL1         0.0783
      37    O9      14.754903   19.483334   20.075697 O.3        1 MOL1        -0.3740
      38    C12     15.699277   17.767293   18.664727 C.3        1 MOL1         0.0138
      39    H18     16.489441   17.009702   18.602762 H          1 MOL1         0.0794
      40    H19     15.924894   18.534752   17.912414 H          1 MOL1         0.0794
      41    O10     14.423040   17.175496   18.403886 O.3        1 MOL1        -0.5486
      42    H20     13.760595   17.891509   18.524321 H          1 MOL1         0.3769
      43    C13     18.410494   24.116134   21.539500 C.3        1 MOL1         0.2972
      44    H21     18.848111   25.122452   21.539959 H          1 MOL1         0.0751
      45    O11     19.413427   23.096349   21.352205 O.3        1 MOL1        -0.3740
      46    C14     17.670864   23.861187   22.875897 C.3        1 MOL1         0.1003
      47    H22     16.857721   24.595333   22.946276 H          1 MOL1         0.0783
      48    O12     18.546721   24.021068   23.999864 O.3        1 MOL1        -0.5519
      49    H23     18.043386   23.650932   24.759699 H          1 MOL1         0.3769
      50    C15     17.039896   22.451707   22.891090 C.3        1 MOL1         0.1053
      51    H24     17.854818   21.718138   22.911577 H          1 MOL1         0.0783
      52    O13     16.219908   22.302124   24.056557 O.3        1 MOL1        -0.5519
      53    H25     15.698685   21.471061   23.929493 H          1 MOL1         0.3769
      54    C16     16.186243   22.193367   21.625404 C.3        1 MOL1         0.1018
      55    H26     15.224370   22.709073   21.746189 H          1 MOL1         0.0783
      56    C17     16.875480   22.658888   20.311011 C.3        1 MOL1         0.1043
      57    H27     17.674282   21.945246   20.070356 H          1 MOL1         0.0783
      58    O14     17.439414   23.984168   20.480491 O.3        1 MOL1        -0.3740
      59    C18     15.916335   22.713558   19.101340 C.3        1 MOL1         0.0138
      60    H28     15.546396   21.702497   18.887951 H          1 MOL1         0.0794
      61    H29     16.480118   23.047180   18.219867 H          1 MOL1         0.0794
      62    O15     14.820333   23.598194   19.352474 O.3        1 MOL1        -0.5486
      63    H30     15.217713   24.470213   19.572187 H          1 MOL1         0.3769
      64    C19     23.465973   22.566839   20.637201 C.3        1 MOL1         0.2972
      65    H31     24.512422   22.660975   20.320134 H          1 MOL1         0.0751
      66    O16     23.171131   21.227466   21.080879 O.3        1 MOL1        -0.3740
      67    C20     23.136127   23.580036   21.768222 C.3        1 MOL1         0.1003
      68    H32     23.304550   24.584585   21.359776 H          1 MOL1         0.0783
      69    O17     24.004512   23.390291   22.896589 O.3        1 MOL1        -0.5519
      70    H33     23.765932   22.517073   23.296926 H          1 MOL1         0.3769
      71    C21     21.641683   23.482271   22.177558 C.3        1 MOL1         0.1053
      72    H34     21.485234   22.509847   22.664870 H          1 MOL1         0.0783
      73    O18     21.298990   24.541353   23.080270 O.3        1 MOL1        -0.5519
      74    H35     20.398765   24.330966   23.431533 H          1 MOL1         0.3769
      75    C22     20.712667   23.558333   20.936958 C.3        1 MOL1         0.1018
      76    H36     20.680256   24.593040   20.570639 H          1 MOL1         0.0783
      77    C23     21.178934   22.639502   19.777823 C.3        1 MOL1         0.1043
      78    H37     20.997583   21.596679   20.065184 H          1 MOL1         0.0783
      79    O19     22.590648   22.850739   19.526813 O.3        1 MOL1        -0.3740
      80    C24     20.425319   22.901411   18.455252 C.3        1 MOL1         0.0138
      81    H38     19.351300   22.743196   18.615326 H          1 MOL1         0.0794
      82    H39     20.758535   22.166682   17.710018 H          1 MOL1         0.0794
      83    O20     20.662249   24.230907   17.982918 O.3        1 MOL1        -0.5486
      84    H40     21.639232   24.334683   17.947428 H          1 MOL1         0.3769
      85    C25     24.984154   17.683038   22.209475 C.3        1 MOL1         0.2972
      86    H41     25.661527   16.888542   22.547386 H          1 MOL1         0.0751
      87    O21     23.761057   17.145440   21.663983 O.3        1 MOL1        -0.3740
      88    C26     24.637434   18.632713   23.385332 C.3        1 MOL1         0.1003
      89    H42     25.572566   19.103756   23.714647 H          1 MOL1         0.0783
      90    O22     24.085492   17.883819   24.479246 O.3        1 MOL1        -0.5519
      91    H43     23.405534   18.453220   24.924346 H          1 MOL1         0.3769
      92    C27     23.686002   19.760974   22.908539 C.3        1 MOL1         0.1053
      93    H44     22.726139   19.309377   22.629890 H          1 MOL1         0.0783
      94    O23     23.487554   20.720654   23.955652 O.3        1 MOL1        -0.5519
      95    H45     22.846347   20.309417   24.593563 H          1 MOL1         0.3769
      96    C28     24.257337   20.477824   21.657673 C.3        1 MOL1         0.1018
      97    H46     25.081565   21.130096   21.974962 H          1 MOL1         0.0783
      98    C29     24.760964   19.483840   20.572712 C.3        1 MOL1         0.1043
      99    H47     23.886004   19.003934   20.113896 H          1 MOL1         0.0783
     100    O24     25.609880   18.478079   21.180349 O.3        1 MOL1        -0.3740
     101    C30     25.567588   20.155254   19.438919 C.3        1 MOL1         0.0138
     102    H48     24.905625   20.828630   18.878561 H          1 MOL1         0.0794
     103    H49     25.907115   19.378422   18.740746 H          1 MOL1         0.0794
     104    O25     26.686761   20.880141   19.957067 O.3        1 MOL1        -0.5486
     105    H50     27.222393   20.231963   20.466350 H          1 MOL1         0.3769
     106    C31     21.517011   13.719271   21.322323 C.3        1 MOL1         0.2972
     107    H51     21.113232   12.710222   21.172887 H          1 MOL1         0.0751
     108    O26     20.470782   14.701375   21.479424 O.3        1 MOL1        -0.3740
     109    C32     22.415559   13.743516   22.581118 C.3        1 MOL1         0.1003
     110    H52     23.246057   13.047240   22.405886 H          1 MOL1         0.0783
     111    O27     21.686980   13.327860   23.744540 O.3        1 MOL1        -0.5519
     112    H53     22.289635   13.522710   24.497098 H          1 MOL1         0.3769
     113    C33     23.012986   15.150117   22.808751 C.3        1 MOL1         0.1053
     114    H54     22.189560   15.819805   23.089281 H          1 MOL1         0.0783
     115    O28     23.966003   15.080788   23.875370 O.3        1 MOL1        -0.5519
     116    H55     24.093697   16.010927   24.187760 H          1 MOL1         0.3769
     117    C34     23.678557   15.714116   21.522310 C.3        1 MOL1         0.1018
     118    H56     24.670338   15.262226   21.388744 H          1 MOL1         0.0783
     119    C35     22.835239   15.467302   20.240295 C.3        1 MOL1         0.1043
     120    H57     21.989235   16.165260   20.246377 H          1 MOL1         0.0783
     121    O29     22.338839   14.106005   20.203225 O.3        1 MOL1        -0.3740
     122    C36     23.634191   15.713056   18.941428 C.3        1 MOL1         0.0138
     123    H58     24.004317   16.747065   18.938536 H          1 MOL1         0.0794
     124    H59     22.956772   15.602831   18.084094 H          1 MOL1         0.0794
     125    O30     24.727011   14.796607   18.829977 O.3        1 MOL1        -0.5486
     126    H60     24.339550   13.898507   18.929712 H          1 MOL1         0.3769
     127    C1      20.751428   18.475340   25.302331 C.2        1 MOL1         0.6145
     128    O1      20.076257   18.048431   26.217723 O.co2      1 MOL1        -0.6735
     129    O2      21.779535   19.109837   25.455493 O.co2      1 MOL1        -0.6735
     130    C2      20.277915   18.218516   23.874964 C.3        1 MOL1        -0.1985
     131    H1      19.509996   17.436576   23.900387 H          1 MOL1         0.0740
     132    H2      21.125681   17.821529   23.309146 H          1 MOL1         0.0740
     133    C3      19.716507   19.493519   23.197042 C.3        1 MOL1        -0.1882
     134    H3      18.896436   19.881379   23.815710 H          1 MOL1         0.0742
     135    H4      20.488188   20.275006   23.181064 H          1 MOL1         0.0742
     136    C4      19.192538   19.255611   21.762973 C.3        1 MOL1        -0.1880
     137    H5      18.734538   20.186026   21.406430 H          1 MOL1         0.0742
     138    H6      18.399423   18.499009   21.784385 H          1 MOL1         0.0742
     139    C5      20.290149   18.825266   20.766692 C.3        1 MOL1        -0.1880
     140    H7      21.167280   19.471104   20.888223 H          1 MOL1         0.0742
     141    H8      20.614557   17.802607   20.994066 H          1 MOL1         0.0742
     142    C6      19.797734   18.906438   19.306394 C.3        1 MOL1        -0.1856
     143    H9      19.427804   19.918630   19.096429 H          1 MOL1         0.0742
     144    H10     18.951849   18.222939   19.157039 H          1 MOL1         0.0742
     145    C7      20.920169   18.561711   18.308928 C.3        1 MOL1        -0.2871
     146    H11     21.781250   19.230301   18.438249 H          1 MOL1         0.0754
     147    H12     20.561287   18.661820   17.276660 H          1 MOL1         0.0754
     148    H13     21.258153   17.528230   18.446282 H          1 MOL1         0.0754
@<TRIPOS>BOND
    1     1     2    1
    2     1     3    1
    3     1     4    1
    4     4     5    1
    5     4     6    1
    6     6     7    1
    7     4     8    1
    8     8     9    1
    9     8    10    1
   10    10    11    1
   11     8    12    1
   12    12    13    1
   13    12    14    1
   14    14    15    1
   15     1    16    1
   16    14    16    1
   17    14    17    1
   18    17    18    1
   19    17    19    1
   20    17    20    1
   21    20    21    1
   22    22    23    1
   23    22    24    1
   24    22    25    1
   25    25    26    1
   26    25    27    1
   27    27    28    1
   28    25    29    1
   29    29    30    1
   30    29    31    1
   31    31    32    1
   32     3    33    1
   33    29    33    1
   34    33    34    1
   35    33    35    1
   36    35    36    1
   37    22    37    1
   38    35    37    1
   39    35    38    1
   40    38    39    1
   41    38    40    1
   42    38    41    1
   43    41    42    1
   44    43    44    1
   45    43    45    1
   46    43    46    1
   47    46    47    1
   48    46    48    1
   49    48    49    1
   50    46    50    1
   51    50    51    1
   52    50    52    1
   53    52    53    1
   54    24    54    1
   55    50    54    1
   56    54    55    1
   57    54    56    1
   58    56    57    1
   59    43    58    1
   60    56    58    1
   61    56    59    1
   62    59    60    1
   63    59    61    1
   64    59    62    1
   65    62    63    1
   66    64    65    1
   67    64    66    1
   68    64    67    1
   69    67    68    1
   70    67    69    1
   71    69    70    1
   72    67    71    1
   73    71    72    1
   74    71    73    1
   75    73    74    1
   76    45    75    1
   77    71    75    1
   78    75    76    1
   79    75    77    1
   80    77    78    1
   81    64    79    1
   82    77    79    1
   83    77    80    1
   84    80    81    1
   85    80    82    1
   86    80    83    1
   87    83    84    1
   88    85    86    1
   89    85    87    1
   90    85    88    1
   91    88    89    1
   92    88    90    1
   93    90    91    1
   94    88    92    1
   95    92    93    1
   96    92    94    1
   97    94    95    1
   98    66    96    1
   99    92    96    1
  100    96    97    1
  101    96    98    1
  102    98    99    1
  103    85   100    1
  104    98   100    1
  105    98   101    1
  106   101   102    1
  107   101   103    1
  108   101   104    1
  109   104   105    1
  110   106   107    1
  111    12   108    1
  112   106   108    1
  113   106   109    1
  114   109   110    1
  115   109   111    1
  116   111   112    1
  117   109   113    1
  118   113   114    1
  119   113   115    1
  120   115   116    1
  121    87   117    1
  122   113   117    1
  123   117   118    1
  124   117   119    1
  125   119   120    1
  126   106   121    1
  127   119   121    1
  128   119   122    1
  129   122   123    1
  130   122   124    1
  131   122   125    1
  132   125   126    1
  133   127   128    1
  134   127   129    2
  135   127   130    1
  136   130   131    1
  137   130   132    1
  138   130   133    1
  139   133   134    1
  140   133   135    1
  141   133   136    1
  142   136   137    1
  143   136   138    1
  144   136   139    1
  145   139   140    1
  146   139   141    1
  147   139   142    1
  148   142   143    1
  149   142   144    1
  150   142   145    1
  151   145   146    1
  152   145   147    1
  153   145   148    1
@<TRIPOS>SUBSTRUCTURE
       1 MOL1            1 RESIDUE      1      MOL     
       2 MOL1          148 RESIDUE      1      MOL     
@<SCITEGIC>MOL_PROPERTY
VM2 Rank
SciTegic.value.IntegerValue
1

@<SCITEGIC>MOL_PROPERTY
Conf_Id
SciTegic.value.IntegerValue
23773

@<SCITEGIC>MOL_PROPERTY
Probability
SciTegic.value.DoubleValue
3.00

@<SCITEGIC>MOL_PROPERTY
Sum Probability
SciTegic.value.DoubleValue
3.00

@<SCITEGIC>MOL_PROPERTY
Delta G
SciTegic.value.DoubleValue
0.000

@<SCITEGIC>MOL_PROPERTY
G
SciTegic.value.DoubleValue
497.028

@<SCITEGIC>MOL_PROPERTY
E
SciTegic.value.DoubleValue
304.940

@<SCITEGIC>MOL_PROPERTY
-TS
SciTegic.value.DoubleValue
192.088

@<SCITEGIC>MOL_PROPERTY
U+W
SciTegic.value.DoubleValue
174.381

@<SCITEGIC>MOL_PROPERTY
U
SciTegic.value.DoubleValue
247.971

@<SCITEGIC>MOL_PROPERTY
W
SciTegic.value.DoubleValue
-73.590

@<SCITEGIC>MOL_PROPERTY
W(PB)
SciTegic.value.DoubleValue
-79.735

@<SCITEGIC>MOL_PROPERTY
W(SA)
SciTegic.value.DoubleValue
6.145

@<SCITEGIC>MOL_PROPERTY
Valence
SciTegic.value.DoubleValue
151.084

@<SCITEGIC>MOL_PROPERTY
Coulomb
SciTegic.value.DoubleValue
123.844

@<SCITEGIC>MOL_PROPERTY
VdW
SciTegic.value.DoubleValue
-26.957

@<SCITEGIC>MOL_PROPERTY
VdW6
SciTegic.value.DoubleValue
-181.952

@<SCITEGIC>MOL_PROPERTY
VdW12
SciTegic.value.DoubleValue
154.994

@<SCITEGIC>MOL_PROPERTY
Bond
SciTegic.value.DoubleValue
4.460

@<SCITEGIC>MOL_PROPERTY
Angle
SciTegic.value.DoubleValue
11.005

@<SCITEGIC>MOL_PROPERTY
Pdih
SciTegic.value.DoubleValue
135.619

@<SCITEGIC>MOL_PROPERTY
Idih
SciTegic.value.DoubleValue
0.000

@<SCITEGIC>MOL_PROPERTY
Tether
SciTegic.value.DoubleValue
0.000

