@<TRIPOS>MOLECULE
CD_guest-s14_vm2_rndm.mol2 : vm2 host+ligand conformer 1
         152         157           2
SMALL
USER_CHARGES
 
@<TRIPOS>ATOM
       1    C1      16.243479   15.297925   21.747800 C.3        1 MOL1         0.2972
       2    H1      15.183853   15.131931   21.981302 H          1 MOL1         0.0751
       3    O1      16.462427   16.595173   21.157901 O.3        1 MOL1        -0.3740
       4    C2      17.105857   15.166540   23.030677 C.3        1 MOL1         0.1003
       5    H2      16.970788   14.144603   23.408324 H          1 MOL1         0.0783
       6    O2      16.703877   16.099955   24.046072 O.3        1 MOL1        -0.5519
       7    H3      15.851281   16.504430   23.753484 H          1 MOL1         0.3769
       8    C3      18.602500   15.365911   22.706306 C.3        1 MOL1         0.1053
       9    H4      18.734983   16.413188   22.413745 H          1 MOL1         0.0783
      10    O3      19.374381   15.094037   23.879528 O.3        1 MOL1        -0.5519
      11    H5      18.895341   15.560961   24.601061 H          1 MOL1         0.3769
      12    C4      19.064871   14.465010   21.532118 C.3        1 MOL1         0.1018
      13    H6      19.173617   13.436660   21.901450 H          1 MOL1         0.0783
      14    C5      18.072850   14.491317   20.334420 C.3        1 MOL1         0.1043
      15    H7      18.161756   15.465334   19.835141 H          1 MOL1         0.0783
      16    O4      16.713969   14.308232   20.807861 O.3        1 MOL1        -0.3740
      17    C6      18.355167   13.402065   19.275906 C.3        1 MOL1         0.0138
      18    H8      19.331929   13.596935   18.813656 H          1 MOL1         0.0794
      19    H9      17.599093   13.475766   18.482752 H          1 MOL1         0.0794
      20    O5      18.337628   12.095993   19.858859 O.3        1 MOL1        -0.5486
      21    H10     17.451591   11.989347   20.271186 H          1 MOL1         0.3769
      22    C7      14.649090   20.226736   20.550912 C.3        1 MOL1         0.2972
      23    H11     14.026643   21.092204   20.289255 H          1 MOL1         0.0751
      24    O6      16.002598   20.620017   20.862236 O.3        1 MOL1        -0.3740
      25    C8      14.042488   19.431891   21.736842 C.3        1 MOL1         0.1003
      26    H12     13.076071   19.037664   21.396349 H          1 MOL1         0.0783
      27    O7      13.821111   20.258764   22.888460 O.3        1 MOL1        -0.5519
      28    H13     14.711460   20.558705   23.202157 H          1 MOL1         0.3769
      29    C9      14.945312   18.228002   22.098228 C.3        1 MOL1         0.1053
      30    H14     15.886504   18.620712   22.508335 H          1 MOL1         0.0783
      31    O8      14.281711   17.430016   23.084289 O.3        1 MOL1        -0.5519
      32    H15     13.871920   18.077075   23.702605 H          1 MOL1         0.3769
      33    C10     15.285869   17.367516   20.849475 C.3        1 MOL1         0.1018
      34    H16     14.432371   16.722183   20.601825 H          1 MOL1         0.0783
      35    C11     15.646675   18.211138   19.596270 C.3        1 MOL1         0.1043
      36    H17     16.664184   18.602002   19.717743 H          1 MOL1         0.0783
      37    O9      14.710302   19.306640   19.441729 O.3        1 MOL1        -0.3740
      38    C12     15.603310   17.366406   18.305348 C.3        1 MOL1         0.0138
      39    H18     14.570560   17.043538   18.117603 H          1 MOL1         0.0794
      40    H19     16.215074   16.464712   18.442720 H          1 MOL1         0.0794
      41    O10     16.099795   18.127154   17.202334 O.3        1 MOL1        -0.5486
      42    H20     15.590180   18.967173   17.198458 H          1 MOL1         0.3769
      43    C13     18.426123   23.774514   21.974968 C.3        1 MOL1         0.2972
      44    H21     18.845599   24.728658   22.317601 H          1 MOL1         0.0751
      45    O11     19.430576   22.940120   21.363271 O.3        1 MOL1        -0.3740
      46    C14     17.790828   23.004157   23.161815 C.3        1 MOL1         0.1003
      47    H22     17.001491   23.644906   23.576013 H          1 MOL1         0.0783
      48    O12     18.755885   22.721455   24.188278 O.3        1 MOL1        -0.5519
      49    H23     19.493063   23.368718   24.078030 H          1 MOL1         0.3769
      50    C15     17.140444   21.686110   22.681918 C.3        1 MOL1         0.1053
      51    H24     17.941405   21.011953   22.357609 H          1 MOL1         0.0783
      52    O13     16.433275   21.095759   23.775991 O.3        1 MOL1        -0.5519
      53    H25     17.061853   21.150134   24.530983 H          1 MOL1         0.3769
      54    C16     16.192129   21.908648   21.476731 C.3        1 MOL1         0.1018
      55    H26     15.248479   22.337311   21.839358 H          1 MOL1         0.0783
      56    C17     16.814120   22.831013   20.390939 C.3        1 MOL1         0.1043
      57    H27     17.601797   22.268448   19.872316 H          1 MOL1         0.0783
      58    O14     17.386033   24.013157   21.003109 O.3        1 MOL1        -0.3740
      59    C18     15.795679   23.295056   19.325910 C.3        1 MOL1         0.0138
      60    H28     15.436137   22.419265   18.769538 H          1 MOL1         0.0794
      61    H29     16.308260   23.949571   18.608271 H          1 MOL1         0.0794
      62    O15     14.694766   23.982865   19.926981 O.3        1 MOL1        -0.5486
      63    H30     15.080435   24.735843   20.427883 H          1 MOL1         0.3769
      64    C19     23.588784   22.772077   21.158446 C.3        1 MOL1         0.2972
      65    H31     24.651638   22.970012   20.968126 H          1 MOL1         0.0751
      66    O16     23.359001   21.409211   21.563773 O.3        1 MOL1        -0.3740
      67    C20     23.046446   23.690916   22.280555 C.3        1 MOL1         0.1003
      68    H32     23.174437   24.728064   21.944228 H          1 MOL1         0.0783
      69    O17     23.775916   23.500261   23.503722 O.3        1 MOL1        -0.5519
      70    H33     23.853816   22.524243   23.655751 H          1 MOL1         0.3769
      71    C21     21.533616   23.446709   22.510535 C.3        1 MOL1         0.1053
      72    H34     21.411220   22.436167   22.924457 H          1 MOL1         0.0783
      73    O18     21.057833   24.414994   23.451886 O.3        1 MOL1        -0.5519
      74    H35     21.775043   24.486518   24.122843 H          1 MOL1         0.3769
      75    C22     20.737063   23.521650   21.174492 C.3        1 MOL1         0.1018
      76    H36     20.661878   24.565880   20.843065 H          1 MOL1         0.0783
      77    C23     21.410094   22.687290   20.052497 C.3        1 MOL1         0.1043
      78    H37     21.294809   21.622713   20.287153 H          1 MOL1         0.0783
      79    O19     22.813681   23.029854   19.969054 O.3        1 MOL1        -0.3740
      80    C24     20.778151   22.943464   18.668596 C.3        1 MOL1         0.0138
      81    H38     20.982337   23.977547   18.360387 H          1 MOL1         0.0794
      82    H39     19.689007   22.825035   18.739387 H          1 MOL1         0.0794
      83    O20     21.303411   22.018286   17.714414 O.3        1 MOL1        -0.5486
      84    H40     22.278616   22.127943   17.735430 H          1 MOL1         0.3769
      85    C25     25.145338   17.729380   21.932475 C.3        1 MOL1         0.2972
      86    H41     25.807814   16.860223   22.033602 H          1 MOL1         0.0751
      87    O21     23.777339   17.338381   21.693271 O.3        1 MOL1        -0.3740
      88    C26     25.194452   18.583761   23.222856 C.3        1 MOL1         0.1003
      89    H42     26.224156   18.945546   23.341012 H          1 MOL1         0.0783
      90    O22     24.834251   17.800210   24.371508 O.3        1 MOL1        -0.5519
      91    H43     24.317304   17.022140   24.044413 H          1 MOL1         0.3769
      92    C27     24.267431   19.813784   23.096015 C.3        1 MOL1         0.1053
      93    H44     23.235135   19.447534   23.088415 H          1 MOL1         0.0783
      94    O23     24.454764   20.675852   24.222445 O.3        1 MOL1        -0.5519
      95    H45     24.447976   20.076933   25.002408 H          1 MOL1         0.3769
      96    C28     24.528384   20.600261   21.785235 C.3        1 MOL1         0.1018
      97    H46     25.430342   21.210778   21.925515 H          1 MOL1         0.0783
      98    C29     24.693411   19.686090   20.537006 C.3        1 MOL1         0.1043
      99    H47     23.701010   19.310456   20.254456 H          1 MOL1         0.0783
     100    O24     25.567819   18.569666   20.839264 O.3        1 MOL1        -0.3740
     101    C30     25.278158   20.419227   19.309328 C.3        1 MOL1         0.0138
     102    H48     24.575916   21.199033   18.987583 H          1 MOL1         0.0794
     103    H49     25.370786   19.703422   18.481518 H          1 MOL1         0.0794
     104    O25     26.551631   20.996432   19.611322 O.3        1 MOL1        -0.5486
     105    H50     27.123550   20.257482   19.916821 H          1 MOL1         0.3769
     106    C31     21.379803   14.060184   20.814639 C.3        1 MOL1         0.2972
     107    H51     20.984598   13.087672   20.493859 H          1 MOL1         0.0751
     108    O26     20.316846   15.003534   21.060814 O.3        1 MOL1        -0.3740
     109    C32     22.262443   13.913462   22.085006 C.3        1 MOL1         0.1003
     110    H52     23.102342   13.259050   21.817747 H          1 MOL1         0.0783
     111    O27     21.546689   13.319136   23.177841 O.3        1 MOL1        -0.5519
     112    H53     20.809593   13.938204   23.411526 H          1 MOL1         0.3769
     113    C33     22.844698   15.285028   22.501475 C.3        1 MOL1         0.1053
     114    H54     22.011681   15.930723   22.812900 H          1 MOL1         0.0783
     115    O28     23.756241   15.109270   23.590469 O.3        1 MOL1        -0.5519
     116    H55     23.311411   14.476877   24.198395 H          1 MOL1         0.3769
     117    C34     23.568527   15.965611   21.313247 C.3        1 MOL1         0.1018
     118    H56     24.514174   15.442855   21.116859 H          1 MOL1         0.0783
     119    C35     22.716637   15.957290   20.016484 C.3        1 MOL1         0.1043
     120    H57     21.886320   16.662868   20.133820 H          1 MOL1         0.0783
     121    O29     22.217284   14.616242   19.778153 O.3        1 MOL1        -0.3740
     122    C36     23.533932   16.373116   18.775750 C.3        1 MOL1         0.0138
     123    H58     24.330833   15.637630   18.602681 H          1 MOL1         0.0794
     124    H59     24.010997   17.343167   18.961162 H          1 MOL1         0.0794
     125    O30     22.678800   16.464082   17.634946 O.3        1 MOL1        -0.5486
     126    H60     22.213803   15.601316   17.575545 H          1 MOL1         0.3769
     127    C1      20.080654   18.927242   23.468486 C.3        1 MOL1        -0.2400
     128    H1      20.547823   19.565264   24.229898 H          1 MOL1         0.0971
     129    H2      18.999138   18.912494   23.658555 H          1 MOL1         0.0971
     130    H3      20.465938   17.907601   23.599167 H          1 MOL1         0.0971
     131    C2      20.388085   19.458802   22.053887 C.3        1 MOL1        -0.1385
     132    H4      21.470695   19.460296   21.887988 H          1 MOL1         0.0960
     133    H5      20.058555   20.500304   21.975688 H          1 MOL1         0.0960
     134    C3      19.716205   18.608162   20.960253 C.3        1 MOL1        -0.1409
     135    H6      20.051982   17.571827   21.067457 H          1 MOL1         0.0960
     136    H7      18.626486   18.609396   21.100426 H          1 MOL1         0.0960
     137    C4      20.066546   19.108229   19.543562 C.3        1 MOL1        -0.1409
     138    H8      21.154656   19.230623   19.450314 H          1 MOL1         0.0960
     139    H9      19.617862   20.098087   19.381950 H          1 MOL1         0.0960
     140    C5      19.576206   18.128549   18.457406 C.3        1 MOL1        -0.1409
     141    H10     20.034435   17.142321   18.613758 H          1 MOL1         0.0960
     142    H11     18.492733   17.990424   18.545736 H          1 MOL1         0.0960
     143    C6      19.915433   18.633717   17.040513 C.3        1 MOL1        -0.1450
     144    H12     21.003700   18.745049   16.939945 H          1 MOL1         0.0960
     145    H13     19.473809   19.627415   16.885390 H          1 MOL1         0.0960
     146    C7      19.393514   17.664284   15.967317 C.3        1 MOL1         0.0172
     147    H14     19.835133   16.675932   16.120387 H          1 MOL1         0.0934
     148    H15     18.306312   17.574943   16.051015 H          1 MOL1         0.0934
     149    N1      19.722430   18.110428   14.557990 N.4        1 MOL1        -0.5956
     150    H16     19.364850   17.452601   13.857424 H          1 MOL1         0.3624
     151    H17     20.734322   18.186516   14.412539 H          1 MOL1         0.3624
     152    H18     19.314940   19.026840   14.346654 H          1 MOL1         0.3624
@<TRIPOS>BOND
    1     1     2    1
    2     1     3    1
    3     1     4    1
    4     4     5    1
    5     4     6    1
    6     6     7    1
    7     4     8    1
    8     8     9    1
    9     8    10    1
   10    10    11    1
   11     8    12    1
   12    12    13    1
   13    12    14    1
   14    14    15    1
   15     1    16    1
   16    14    16    1
   17    14    17    1
   18    17    18    1
   19    17    19    1
   20    17    20    1
   21    20    21    1
   22    22    23    1
   23    22    24    1
   24    22    25    1
   25    25    26    1
   26    25    27    1
   27    27    28    1
   28    25    29    1
   29    29    30    1
   30    29    31    1
   31    31    32    1
   32     3    33    1
   33    29    33    1
   34    33    34    1
   35    33    35    1
   36    35    36    1
   37    22    37    1
   38    35    37    1
   39    35    38    1
   40    38    39    1
   41    38    40    1
   42    38    41    1
   43    41    42    1
   44    43    44    1
   45    43    45    1
   46    43    46    1
   47    46    47    1
   48    46    48    1
   49    48    49    1
   50    46    50    1
   51    50    51    1
   52    50    52    1
   53    52    53    1
   54    24    54    1
   55    50    54    1
   56    54    55    1
   57    54    56    1
   58    56    57    1
   59    43    58    1
   60    56    58    1
   61    56    59    1
   62    59    60    1
   63    59    61    1
   64    59    62    1
   65    62    63    1
   66    64    65    1
   67    64    66    1
   68    64    67    1
   69    67    68    1
   70    67    69    1
   71    69    70    1
   72    67    71    1
   73    71    72    1
   74    71    73    1
   75    73    74    1
   76    45    75    1
   77    71    75    1
   78    75    76    1
   79    75    77    1
   80    77    78    1
   81    64    79    1
   82    77    79    1
   83    77    80    1
   84    80    81    1
   85    80    82    1
   86    80    83    1
   87    83    84    1
   88    85    86    1
   89    85    87    1
   90    85    88    1
   91    88    89    1
   92    88    90    1
   93    90    91    1
   94    88    92    1
   95    92    93    1
   96    92    94    1
   97    94    95    1
   98    66    96    1
   99    92    96    1
  100    96    97    1
  101    96    98    1
  102    98    99    1
  103    85   100    1
  104    98   100    1
  105    98   101    1
  106   101   102    1
  107   101   103    1
  108   101   104    1
  109   104   105    1
  110   106   107    1
  111    12   108    1
  112   106   108    1
  113   106   109    1
  114   109   110    1
  115   109   111    1
  116   111   112    1
  117   109   113    1
  118   113   114    1
  119   113   115    1
  120   115   116    1
  121    87   117    1
  122   113   117    1
  123   117   118    1
  124   117   119    1
  125   119   120    1
  126   106   121    1
  127   119   121    1
  128   119   122    1
  129   122   123    1
  130   122   124    1
  131   122   125    1
  132   125   126    1
  133   127   128    1
  134   127   129    1
  135   127   130    1
  136   127   131    1
  137   131   132    1
  138   131   133    1
  139   131   134    1
  140   134   135    1
  141   134   136    1
  142   134   137    1
  143   137   138    1
  144   137   139    1
  145   137   140    1
  146   140   141    1
  147   140   142    1
  148   140   143    1
  149   143   144    1
  150   143   145    1
  151   143   146    1
  152   146   147    1
  153   146   148    1
  154   146   149    1
  155   149   150    1
  156   149   151    1
  157   149   152    1
@<TRIPOS>SUBSTRUCTURE
       1 MOL1            1 RESIDUE      1      MOL     
       2 MOL1          152 RESIDUE      1      MOL     
@<SCITEGIC>MOL_PROPERTY
VM2 Rank
SciTegic.value.IntegerValue
1

@<SCITEGIC>MOL_PROPERTY
Conf_Id
SciTegic.value.IntegerValue
27652

@<SCITEGIC>MOL_PROPERTY
Probability
SciTegic.value.DoubleValue
4.78

@<SCITEGIC>MOL_PROPERTY
Sum Probability
SciTegic.value.DoubleValue
4.78

@<SCITEGIC>MOL_PROPERTY
Delta G
SciTegic.value.DoubleValue
0.000

@<SCITEGIC>MOL_PROPERTY
G
SciTegic.value.DoubleValue
565.640

@<SCITEGIC>MOL_PROPERTY
E
SciTegic.value.DoubleValue
364.079

@<SCITEGIC>MOL_PROPERTY
-TS
SciTegic.value.DoubleValue
201.562

@<SCITEGIC>MOL_PROPERTY
U+W
SciTegic.value.DoubleValue
229.942

@<SCITEGIC>MOL_PROPERTY
U
SciTegic.value.DoubleValue
302.740

@<SCITEGIC>MOL_PROPERTY
W
SciTegic.value.DoubleValue
-72.798

@<SCITEGIC>MOL_PROPERTY
W(PB)
SciTegic.value.DoubleValue
-78.923

@<SCITEGIC>MOL_PROPERTY
W(SA)
SciTegic.value.DoubleValue
6.125

@<SCITEGIC>MOL_PROPERTY
Valence
SciTegic.value.DoubleValue
146.266

@<SCITEGIC>MOL_PROPERTY
Coulomb
SciTegic.value.DoubleValue
183.058

@<SCITEGIC>MOL_PROPERTY
VdW
SciTegic.value.DoubleValue
-26.583

@<SCITEGIC>MOL_PROPERTY
VdW6
SciTegic.value.DoubleValue
-176.637

@<SCITEGIC>MOL_PROPERTY
VdW12
SciTegic.value.DoubleValue
150.053

@<SCITEGIC>MOL_PROPERTY
Bond
SciTegic.value.DoubleValue
4.318

@<SCITEGIC>MOL_PROPERTY
Angle
SciTegic.value.DoubleValue
9.611

@<SCITEGIC>MOL_PROPERTY
Pdih
SciTegic.value.DoubleValue
132.337

@<SCITEGIC>MOL_PROPERTY
Idih
SciTegic.value.DoubleValue
0.000

@<SCITEGIC>MOL_PROPERTY
Tether
SciTegic.value.DoubleValue
0.000

@<TRIPOS>MOLECULE
CD_guest-s14_vm2_rndm.mol2 : vm2 host+ligand conformer 2
         152         157           2
SMALL
USER_CHARGES
 
@<TRIPOS>ATOM
       1    C1      16.302984   15.271693   21.821616 C.3        1 MOL1         0.2972
       2    H1      15.245559   15.101575   22.062079 H          1 MOL1         0.0751
       3    O1      16.514556   16.574257   21.241154 O.3        1 MOL1        -0.3740
       4    C2      17.173816   15.130800   23.096879 C.3        1 MOL1         0.1003
       5    H2      17.030608   14.110040   23.474677 H          1 MOL1         0.0783
       6    O2      16.786611   16.067552   24.115037 O.3        1 MOL1        -0.5519
       7    H3      15.935813   16.479635   23.827415 H          1 MOL1         0.3769
       8    C3      18.670863   15.314803   22.763510 C.3        1 MOL1         0.1053
       9    H4      18.812725   16.363557   22.481654 H          1 MOL1         0.0783
      10    O3      19.443432   15.025841   23.931384 O.3        1 MOL1        -0.5519
      11    H5      18.975073   15.496999   24.657334 H          1 MOL1         0.3769
      12    C4      19.118027   14.421156   21.575206 C.3        1 MOL1         0.1018
      13    H6      19.208977   13.383472   21.923157 H          1 MOL1         0.0783
      14    C5      18.121555   14.486960   20.383975 C.3        1 MOL1         0.1043
      15    H7      18.215006   15.469149   19.902536 H          1 MOL1         0.0783
      16    O4      16.769275   14.290764   20.871523 O.3        1 MOL1        -0.3740
      17    C6      18.391048   13.407602   19.315751 C.3        1 MOL1         0.0138
      18    H8      18.274629   12.412325   19.765258 H          1 MOL1         0.0794
      19    H9      19.425004   13.498783   18.958448 H          1 MOL1         0.0794
      20    O5      17.488456   13.574236   18.220970 O.3        1 MOL1        -0.5486
      21    H10     16.587171   13.595386   18.612948 H          1 MOL1         0.3769
      22    C7      14.651129   20.180381   20.609592 C.3        1 MOL1         0.2972
      23    H11     14.013627   21.033521   20.343722 H          1 MOL1         0.0751
      24    O6      15.999569   20.596892   20.910413 O.3        1 MOL1        -0.3740
      25    C8      14.065491   19.387998   21.807418 C.3        1 MOL1         0.1003
      26    H12     13.102889   18.975188   21.478357 H          1 MOL1         0.0783
      27    O7      13.840064   20.223546   22.952022 O.3        1 MOL1        -0.5519
      28    H13     14.726255   20.551792   23.248759 H          1 MOL1         0.3769
      29    C9      14.990446   18.202256   22.173079 C.3        1 MOL1         0.1053
      30    H14     15.929584   18.613896   22.569183 H          1 MOL1         0.0783
      31    O8      14.350411   17.404288   23.174640 O.3        1 MOL1        -0.5519
      32    H15     13.938515   18.051288   23.791547 H          1 MOL1         0.3769
      33    C10     15.330915   17.334216   20.929622 C.3        1 MOL1         0.1018
      34    H16     14.481098   16.679924   20.693072 H          1 MOL1         0.0783
      35    C11     15.674320   18.170741   19.666484 C.3        1 MOL1         0.1043
      36    H17     16.687542   18.576811   19.776731 H          1 MOL1         0.0783
      37    O9      14.720930   19.251314   19.508460 O.3        1 MOL1        -0.3740
      38    C12     15.632468   17.315416   18.382241 C.3        1 MOL1         0.0138
      39    H18     14.603946   16.972396   18.207810 H          1 MOL1         0.0794
      40    H19     16.262471   16.425772   18.517558 H          1 MOL1         0.0794
      41    O10     16.102027   18.079448   17.269687 O.3        1 MOL1        -0.5486
      42    H20     15.579641   18.911384   17.270049 H          1 MOL1         0.3769
      43    C13     18.410923   23.785202   21.916908 C.3        1 MOL1         0.2972
      44    H21     18.838368   24.746925   22.227032 H          1 MOL1         0.0751
      45    O11     19.404770   22.928065   21.319019 O.3        1 MOL1        -0.3740
      46    C14     17.783592   23.053181   23.131821 C.3        1 MOL1         0.1003
      47    H22     16.997938   23.707478   23.531589 H          1 MOL1         0.0783
      48    O12     18.755898   22.801347   24.159443 O.3        1 MOL1        -0.5519
      49    H23     19.500045   23.433795   24.014661 H          1 MOL1         0.3769
      50    C15     17.128424   21.721609   22.697843 C.3        1 MOL1         0.1053
      51    H24     17.927070   21.035977   22.393515 H          1 MOL1         0.0783
      52    O13     16.425427   21.167061   23.813083 O.3        1 MOL1        -0.5519
      53    H25     17.057165   21.244644   24.563410 H          1 MOL1         0.3769
      54    C16     16.174977   21.903614   21.489608 C.3        1 MOL1         0.1018
      55    H26     15.227294   22.330231   21.844140 H          1 MOL1         0.0783
      56    C17     16.782067   22.802146   20.375247 C.3        1 MOL1         0.1043
      57    H27     17.563934   22.228441   19.860065 H          1 MOL1         0.0783
      58    O14     17.360678   23.999526   20.950538 O.3        1 MOL1        -0.3740
      59    C18     15.749856   23.238816   19.311937 C.3        1 MOL1         0.0138
      60    H28     15.384486   22.349280   18.781797 H          1 MOL1         0.0794
      61    H29     16.252641   23.875946   18.572065 H          1 MOL1         0.0794
      62    O15     14.655759   23.940273   19.909650 O.3        1 MOL1        -0.5486
      63    H30     15.046810   24.705584   20.387164 H          1 MOL1         0.3769
      64    C19     23.560794   22.733460   21.063160 C.3        1 MOL1         0.2972
      65    H31     24.621512   22.922026   20.852277 H          1 MOL1         0.0751
      66    O16     23.333287   21.381790   21.504925 O.3        1 MOL1        -0.3740
      67    C20     23.035779   23.684769   22.166759 C.3        1 MOL1         0.1003
      68    H32     23.161713   24.711497   21.799143 H          1 MOL1         0.0783
      69    O17     23.780427   23.528607   23.385539 O.3        1 MOL1        -0.5519
      70    H33     23.830174   22.558822   23.582976 H          1 MOL1         0.3769
      71    C21     21.525475   23.451735   22.423225 C.3        1 MOL1         0.1053
      72    H34     21.404831   22.452376   22.864235 H          1 MOL1         0.0783
      73    O18     21.065269   24.445942   23.345118 O.3        1 MOL1        -0.5519
      74    H35     21.791997   24.533523   24.003811 H          1 MOL1         0.3769
      75    C22     20.711932   23.495811   21.096360 C.3        1 MOL1         0.1018
      76    H36     20.638224   24.531307   20.738280 H          1 MOL1         0.0783
      77    C23     21.366064   22.628031   19.988004 C.3        1 MOL1         0.1043
      78    H37     21.248337   21.570054   20.249887 H          1 MOL1         0.0783
      79    O19     22.770456   22.961176   19.877314 O.3        1 MOL1        -0.3740
      80    C24     20.717254   22.850722   18.606264 C.3        1 MOL1         0.0138
      81    H38     20.927730   23.873149   18.265137 H          1 MOL1         0.0794
      82    H39     19.628083   22.745893   18.695459 H          1 MOL1         0.0794
      83    O20     21.219445   21.892244   17.672742 O.3        1 MOL1        -0.5486
      84    H40     22.196657   21.985932   17.683108 H          1 MOL1         0.3769
      85    C25     25.145610   17.734668   22.036005 C.3        1 MOL1         0.2972
      86    H41     25.812262   16.875374   22.183724 H          1 MOL1         0.0751
      87    O21     23.791740   17.322762   21.755648 O.3        1 MOL1        -0.3740
      88    C26     25.136083   18.620317   23.305774 C.3        1 MOL1         0.1003
      89    H42     26.156667   18.996196   23.454983 H          1 MOL1         0.0783
      90    O22     24.738731   17.859871   24.457855 O.3        1 MOL1        -0.5519
      91    H43     24.262907   17.057320   24.128075 H          1 MOL1         0.3769
      92    C27     24.201600   19.836153   23.113071 C.3        1 MOL1         0.1053
      93    H44     23.174961   19.456432   23.075139 H          1 MOL1         0.0783
      94    O23     24.335927   20.726389   24.224962 O.3        1 MOL1        -0.5519
      95    H45     24.304258   20.145735   25.018011 H          1 MOL1         0.3769
      96    C28     24.503055   20.594361   21.793878 C.3        1 MOL1         0.1018
      97    H46     25.390911   21.220852   21.952756 H          1 MOL1         0.0783
      98    C29     24.726564   19.651513   20.576360 C.3        1 MOL1         0.1043
      99    H47     23.749705   19.257190   20.266224 H          1 MOL1         0.0783
     100    O24     25.600801   18.553114   20.939240 O.3        1 MOL1        -0.3740
     101    C30     25.348474   20.361088   19.353058 C.3        1 MOL1         0.0138
     102    H48     24.647890   21.121129   18.983501 H          1 MOL1         0.0794
     103    H49     25.483806   19.625328   18.548960 H          1 MOL1         0.0794
     104    O25     26.600568   20.965931   19.688470 O.3        1 MOL1        -0.5486
     105    H50     27.171818   20.244018   20.033424 H          1 MOL1         0.3769
     106    C31     21.451807   14.008751   20.884478 C.3        1 MOL1         0.2972
     107    H51     21.069738   13.029556   20.570262 H          1 MOL1         0.0751
     108    O26     20.377170   14.946657   21.105607 O.3        1 MOL1        -0.3740
     109    C32     22.326060   13.880156   22.161525 C.3        1 MOL1         0.1003
     110    H52     23.179083   13.239669   21.902027 H          1 MOL1         0.0783
     111    O27     21.611551   13.272144   23.246909 O.3        1 MOL1        -0.5519
     112    H53     20.871569   13.885710   23.485345 H          1 MOL1         0.3769
     113    C33     22.883007   15.262895   22.575495 C.3        1 MOL1         0.1053
     114    H54     22.037042   15.899562   22.870213 H          1 MOL1         0.0783
     115    O28     23.782711   15.110150   23.677724 O.3        1 MOL1        -0.5519
     116    H55     23.340945   14.474788   24.284718 H          1 MOL1         0.3769
     117    C34     23.613255   15.942132   21.389758 C.3        1 MOL1         0.1018
     118    H56     24.571150   15.434611   21.213626 H          1 MOL1         0.0783
     119    C35     22.782949   15.906048   20.079227 C.3        1 MOL1         0.1043
     120    H57     21.946335   16.607286   20.172511 H          1 MOL1         0.0783
     121    O29     22.295968   14.558562   19.851020 O.3        1 MOL1        -0.3740
     122    C36     23.616995   16.310091   18.845962 C.3        1 MOL1         0.0138
     123    H58     24.414780   15.571855   18.689394 H          1 MOL1         0.0794
     124    H59     24.093484   17.280804   19.029298 H          1 MOL1         0.0794
     125    O30     22.776429   16.392966   17.693805 O.3        1 MOL1        -0.5486
     126    H60     22.309083   15.531333   17.635873 H          1 MOL1         0.3769
     127    C1      20.130163   19.009713   23.457791 C.3        1 MOL1        -0.2400
     128    H1      20.574501   19.718995   24.168235 H          1 MOL1         0.0971
     129    H2      19.055349   18.945250   23.673747 H          1 MOL1         0.0971
     130    H3      20.576107   18.023093   23.640209 H          1 MOL1         0.0971
     131    C2      20.377030   19.470237   22.006755 C.3        1 MOL1        -0.1385
     132    H4      21.453351   19.532769   21.816132 H          1 MOL1         0.0960
     133    H5      19.976078   20.479454   21.870105 H          1 MOL1         0.0960
     134    C3      19.744535   18.510373   20.984212 C.3        1 MOL1        -0.1409
     135    H6      20.148984   17.507509   21.152800 H          1 MOL1         0.0960
     136    H7      18.659768   18.452935   21.147816 H          1 MOL1         0.0960
     137    C4      20.035723   18.933806   19.529597 C.3        1 MOL1        -0.1409
     138    H8      21.114756   19.093777   19.395602 H          1 MOL1         0.0960
     139    H9      19.542022   19.892820   19.318968 H          1 MOL1         0.0960
     140    C5      19.554267   17.863479   18.527537 C.3        1 MOL1        -0.1409
     141    H10     20.068761   16.912782   18.723550 H          1 MOL1         0.0960
     142    H11     18.484389   17.676607   18.673485 H          1 MOL1         0.0960
     143    C6      19.803828   18.289701   17.067243 C.3        1 MOL1        -0.1450
     144    H12     20.879126   18.447479   16.907300 H          1 MOL1         0.0960
     145    H13     19.302770   19.247090   16.870276 H          1 MOL1         0.0960
     146    C7      19.283473   17.225585   16.086628 C.3        1 MOL1         0.0172
     147    H14     19.781257   16.271785   16.281231 H          1 MOL1         0.0934
     148    H15     18.207392   17.089871   16.230627 H          1 MOL1         0.0934
     149    N1      19.521131   17.591529   14.636443 N.4        1 MOL1        -0.5956
     150    H16     19.168127   16.869565   13.999642 H          1 MOL1         0.3624
     151    H17     20.519050   17.711226   14.435005 H          1 MOL1         0.3624
     152    H18     19.052324   18.468220   14.387064 H          1 MOL1         0.3624
@<TRIPOS>BOND
    1     1     2    1
    2     1     3    1
    3     1     4    1
    4     4     5    1
    5     4     6    1
    6     6     7    1
    7     4     8    1
    8     8     9    1
    9     8    10    1
   10    10    11    1
   11     8    12    1
   12    12    13    1
   13    12    14    1
   14    14    15    1
   15     1    16    1
   16    14    16    1
   17    14    17    1
   18    17    18    1
   19    17    19    1
   20    17    20    1
   21    20    21    1
   22    22    23    1
   23    22    24    1
   24    22    25    1
   25    25    26    1
   26    25    27    1
   27    27    28    1
   28    25    29    1
   29    29    30    1
   30    29    31    1
   31    31    32    1
   32     3    33    1
   33    29    33    1
   34    33    34    1
   35    33    35    1
   36    35    36    1
   37    22    37    1
   38    35    37    1
   39    35    38    1
   40    38    39    1
   41    38    40    1
   42    38    41    1
   43    41    42    1
   44    43    44    1
   45    43    45    1
   46    43    46    1
   47    46    47    1
   48    46    48    1
   49    48    49    1
   50    46    50    1
   51    50    51    1
   52    50    52    1
   53    52    53    1
   54    24    54    1
   55    50    54    1
   56    54    55    1
   57    54    56    1
   58    56    57    1
   59    43    58    1
   60    56    58    1
   61    56    59    1
   62    59    60    1
   63    59    61    1
   64    59    62    1
   65    62    63    1
   66    64    65    1
   67    64    66    1
   68    64    67    1
   69    67    68    1
   70    67    69    1
   71    69    70    1
   72    67    71    1
   73    71    72    1
   74    71    73    1
   75    73    74    1
   76    45    75    1
   77    71    75    1
   78    75    76    1
   79    75    77    1
   80    77    78    1
   81    64    79    1
   82    77    79    1
   83    77    80    1
   84    80    81    1
   85    80    82    1
   86    80    83    1
   87    83    84    1
   88    85    86    1
   89    85    87    1
   90    85    88    1
   91    88    89    1
   92    88    90    1
   93    90    91    1
   94    88    92    1
   95    92    93    1
   96    92    94    1
   97    94    95    1
   98    66    96    1
   99    92    96    1
  100    96    97    1
  101    96    98    1
  102    98    99    1
  103    85   100    1
  104    98   100    1
  105    98   101    1
  106   101   102    1
  107   101   103    1
  108   101   104    1
  109   104   105    1
  110   106   107    1
  111    12   108    1
  112   106   108    1
  113   106   109    1
  114   109   110    1
  115   109   111    1
  116   111   112    1
  117   109   113    1
  118   113   114    1
  119   113   115    1
  120   115   116    1
  121    87   117    1
  122   113   117    1
  123   117   118    1
  124   117   119    1
  125   119   120    1
  126   106   121    1
  127   119   121    1
  128   119   122    1
  129   122   123    1
  130   122   124    1
  131   122   125    1
  132   125   126    1
  133   127   128    1
  134   127   129    1
  135   127   130    1
  136   127   131    1
  137   131   132    1
  138   131   133    1
  139   131   134    1
  140   134   135    1
  141   134   136    1
  142   134   137    1
  143   137   138    1
  144   137   139    1
  145   137   140    1
  146   140   141    1
  147   140   142    1
  148   140   143    1
  149   143   144    1
  150   143   145    1
  151   143   146    1
  152   146   147    1
  153   146   148    1
  154   146   149    1
  155   149   150    1
  156   149   151    1
  157   149   152    1
@<TRIPOS>SUBSTRUCTURE
       1 MOL1            1 RESIDUE      1      MOL     
       2 MOL1          152 RESIDUE      1      MOL     
@<SCITEGIC>MOL_PROPERTY
VM2 Rank
SciTegic.value.IntegerValue
2

@<SCITEGIC>MOL_PROPERTY
Conf_Id
SciTegic.value.IntegerValue
28961

@<SCITEGIC>MOL_PROPERTY
Probability
SciTegic.value.DoubleValue
3.89

@<SCITEGIC>MOL_PROPERTY
Sum Probability
SciTegic.value.DoubleValue
8.67

@<SCITEGIC>MOL_PROPERTY
Delta G
SciTegic.value.DoubleValue
0.122

@<SCITEGIC>MOL_PROPERTY
G
SciTegic.value.DoubleValue
565.762

@<SCITEGIC>MOL_PROPERTY
E
SciTegic.value.DoubleValue
364.632

@<SCITEGIC>MOL_PROPERTY
-TS
SciTegic.value.DoubleValue
201.131

@<SCITEGIC>MOL_PROPERTY
U+W
SciTegic.value.DoubleValue
230.495

@<SCITEGIC>MOL_PROPERTY
U
SciTegic.value.DoubleValue
301.687

@<SCITEGIC>MOL_PROPERTY
W
SciTegic.value.DoubleValue
-71.191

@<SCITEGIC>MOL_PROPERTY
W(PB)
SciTegic.value.DoubleValue
-77.314

@<SCITEGIC>MOL_PROPERTY
W(SA)
SciTegic.value.DoubleValue
6.122

@<SCITEGIC>MOL_PROPERTY
Valence
SciTegic.value.DoubleValue
146.881

@<SCITEGIC>MOL_PROPERTY
Coulomb
SciTegic.value.DoubleValue
181.783

@<SCITEGIC>MOL_PROPERTY
VdW
SciTegic.value.DoubleValue
-26.977

@<SCITEGIC>MOL_PROPERTY
VdW6
SciTegic.value.DoubleValue
-176.513

@<SCITEGIC>MOL_PROPERTY
VdW12
SciTegic.value.DoubleValue
149.537

@<SCITEGIC>MOL_PROPERTY
Bond
SciTegic.value.DoubleValue
4.322

@<SCITEGIC>MOL_PROPERTY
Angle
SciTegic.value.DoubleValue
9.667

@<SCITEGIC>MOL_PROPERTY
Pdih
SciTegic.value.DoubleValue
132.891

@<SCITEGIC>MOL_PROPERTY
Idih
SciTegic.value.DoubleValue
0.000

@<SCITEGIC>MOL_PROPERTY
Tether
SciTegic.value.DoubleValue
0.000

@<TRIPOS>MOLECULE
CD_guest-s14_vm2_rndm.mol2 : vm2 host+ligand conformer 3
         152         157           2
SMALL
USER_CHARGES
 
@<TRIPOS>ATOM
       1    C1      16.169154   15.163777   21.822760 C.3        1 MOL1         0.2972
       2    H1      15.115836   14.977532   22.069166 H          1 MOL1         0.0751
       3    O1      16.372246   16.485885   21.287672 O.3        1 MOL1        -0.3740
       4    C2      17.061478   14.993037   23.078447 C.3        1 MOL1         0.1003
       5    H2      16.978511   13.946664   23.400067 H          1 MOL1         0.0783
       6    O2      16.641707   15.848581   24.153168 O.3        1 MOL1        -0.5519
       7    H3      15.914492   16.422258   23.807740 H          1 MOL1         0.3769
       8    C3      18.539831   15.270748   22.727065 C.3        1 MOL1         0.1053
       9    H4      18.624388   16.332558   22.464953 H          1 MOL1         0.0783
      10    O3      19.356596   14.984032   23.866595 O.3        1 MOL1        -0.5519
      11    H5      18.880922   15.398606   24.621401 H          1 MOL1         0.3769
      12    C4      19.006585   14.434744   21.509416 C.3        1 MOL1         0.1018
      13    H6      19.173759   13.400840   21.839327 H          1 MOL1         0.0783
      14    C5      17.983067   14.455549   20.336334 C.3        1 MOL1         0.1043
      15    H7      18.030720   15.442382   19.856800 H          1 MOL1         0.0783
      16    O4      16.639905   14.221246   20.835432 O.3        1 MOL1        -0.3740
      17    C6      18.270767   13.400264   19.245412 C.3        1 MOL1         0.0138
      18    H8      19.226281   13.638468   18.759822 H          1 MOL1         0.0794
      19    H9      17.489905   13.466013   18.475898 H          1 MOL1         0.0794
      20    O5      18.313309   12.081653   19.797999 O.3        1 MOL1        -0.5486
      21    H10     17.442409   11.934596   20.229710 H          1 MOL1         0.3769
      22    C7      14.680785   20.145119   20.635013 C.3        1 MOL1         0.2972
      23    H11     14.082573   21.028247   20.375732 H          1 MOL1         0.0751
      24    O6      16.068523   20.491080   20.849117 O.3        1 MOL1        -0.3740
      25    C8      14.105737   19.423310   21.882803 C.3        1 MOL1         0.1003
      26    H12     13.106375   19.059891   21.609856 H          1 MOL1         0.0783
      27    O7      13.981952   20.299767   23.011822 O.3        1 MOL1        -0.5519
      28    H13     14.901841   20.553544   23.276660 H          1 MOL1         0.3769
      29    C9      14.975743   18.195248   22.240223 C.3        1 MOL1         0.1053
      30    H14     15.957212   18.561210   22.572946 H          1 MOL1         0.0783
      31    O8      14.348676   17.463417   23.297486 O.3        1 MOL1        -0.5519
      32    H15     14.015217   18.148019   23.920899 H          1 MOL1         0.3769
      33    C10     15.198227   17.270299   21.013681 C.3        1 MOL1         0.1018
      34    H16     14.311609   16.642007   20.854529 H          1 MOL1         0.0783
      35    C11     15.508747   18.041106   19.702660 C.3        1 MOL1         0.1043
      36    H17     16.551298   18.374071   19.740407 H          1 MOL1         0.0783
      37    O9      14.627581   19.183098   19.561538 O.3        1 MOL1        -0.3740
      38    C12     15.331978   17.147607   18.456984 C.3        1 MOL1         0.0138
      39    H18     14.282456   16.832983   18.382663 H          1 MOL1         0.0794
      40    H19     15.944493   16.243253   18.571436 H          1 MOL1         0.0794
      41    O10     15.724994   17.857854   17.281360 O.3        1 MOL1        -0.5486
      42    H20     15.216968   18.698773   17.292139 H          1 MOL1         0.3769
      43    C13     18.535214   23.705778   21.866001 C.3        1 MOL1         0.2972
      44    H21     18.909386   24.681162   22.201779 H          1 MOL1         0.0751
      45    O11     19.576697   22.926510   21.244236 O.3        1 MOL1        -0.3740
      46    C14     17.949827   22.911265   23.064529 C.3        1 MOL1         0.1003
      47    H22     17.147362   23.524985   23.494194 H          1 MOL1         0.0783
      48    O12     18.939174   22.658710   24.075259 O.3        1 MOL1        -0.5519
      49    H23     19.639661   23.346747   23.973584 H          1 MOL1         0.3769
      50    C15     17.333607   21.573015   22.597982 C.3        1 MOL1         0.1053
      51    H24     18.148950   20.935031   22.238339 H          1 MOL1         0.0783
      52    O13     16.689659   20.953446   23.714506 O.3        1 MOL1        -0.5519
      53    H25     17.341184   21.036496   24.447343 H          1 MOL1         0.3769
      54    C16     16.334476   21.783224   21.432755 C.3        1 MOL1         0.1018
      55    H26     15.422414   22.249629   21.828135 H          1 MOL1         0.0783
      56    C17     16.937696   22.677864   20.315349 C.3        1 MOL1         0.1043
      57    H27     17.738141   22.116213   19.815202 H          1 MOL1         0.0783
      58    O14     17.479874   23.889965   20.897091 O.3        1 MOL1        -0.3740
      59    C18     15.908881   23.089570   19.238724 C.3        1 MOL1         0.0138
      60    H28     15.565886   22.190313   18.709850 H          1 MOL1         0.0794
      61    H29     16.407273   23.732261   18.500722 H          1 MOL1         0.0794
      62    O15     14.795154   23.772784   19.821372 O.3        1 MOL1        -0.5486
      63    H30     15.166455   24.547789   20.298827 H          1 MOL1         0.3769
      64    C19     23.713024   22.848030   21.071201 C.3        1 MOL1         0.2972
      65    H31     24.783829   23.024623   20.906151 H          1 MOL1         0.0751
      66    O16     23.440070   21.473884   21.405989 O.3        1 MOL1        -0.3740
      67    C20     23.160383   23.746571   22.205165 C.3        1 MOL1         0.1003
      68    H32     23.282218   24.788363   21.880976 H          1 MOL1         0.0783
      69    O17     23.880717   23.554251   23.432501 O.3        1 MOL1        -0.5519
      70    H33     23.843653   22.588660   23.651743 H          1 MOL1         0.3769
      71    C21     21.647907   23.487326   22.417522 C.3        1 MOL1         0.1053
      72    H34     21.530825   22.470239   22.817243 H          1 MOL1         0.0783
      73    O18     21.154987   24.440314   23.365912 O.3        1 MOL1        -0.5519
      74    H35     21.867727   24.516800   24.041014 H          1 MOL1         0.3769
      75    C22     20.856026   23.574863   21.078905 C.3        1 MOL1         0.1018
      76    H36     20.733146   24.627478   20.790924 H          1 MOL1         0.0783
      77    C23     21.559585   22.822443   19.917415 C.3        1 MOL1         0.1043
      78    H37     21.445817   21.743954   20.077721 H          1 MOL1         0.0783
      79    O19     22.965182   23.170358   19.880241 O.3        1 MOL1        -0.3740
      80    C24     20.946685   23.170357   18.544876 C.3        1 MOL1         0.0138
      81    H38     21.162274   24.220241   18.305478 H          1 MOL1         0.0794
      82    H39     19.855564   23.056680   18.596008 H          1 MOL1         0.0794
      83    O20     21.476231   22.303956   17.539688 O.3        1 MOL1        -0.5486
      84    H40     22.453649   22.380175   17.598706 H          1 MOL1         0.3769
      85    C25     24.984359   17.778604   22.118397 C.3        1 MOL1         0.2972
      86    H41     25.557133   16.867926   22.336444 H          1 MOL1         0.0751
      87    O21     23.681128   17.474278   21.577166 O.3        1 MOL1        -0.3740
      88    C26     24.812066   18.622549   23.405497 C.3        1 MOL1         0.1003
      89    H42     25.815143   18.919115   23.738735 H          1 MOL1         0.0783
      90    O22     24.172256   17.866337   24.446005 O.3        1 MOL1        -0.5519
      91    H43     24.007755   16.959647   24.087627 H          1 MOL1         0.3769
      92    C27     24.003354   19.905267   23.110806 C.3        1 MOL1         0.1053
      93    H44     22.974688   19.598542   22.897284 H          1 MOL1         0.0783
      94    O23     24.010518   20.749172   24.265543 O.3        1 MOL1        -0.5519
      95    H45     23.816274   20.144463   25.016736 H          1 MOL1         0.3769
      96    C28     24.542972   20.681529   21.881046 C.3        1 MOL1         0.1018
      97    H46     25.391023   21.301659   22.200951 H          1 MOL1         0.0783
      98    C29     24.960822   19.766066   20.693569 C.3        1 MOL1         0.1043
      99    H47     24.046161   19.442595   20.180216 H          1 MOL1         0.0783
     100    O24     25.685148   18.601788   21.163935 O.3        1 MOL1        -0.3740
     101    C30     25.843973   20.483494   19.648895 C.3        1 MOL1         0.0138
     102    H48     25.267980   21.299054   19.191975 H          1 MOL1         0.0794
     103    H49     26.093547   19.772934   18.849526 H          1 MOL1         0.0794
     104    O25     27.037491   20.997225   20.246816 O.3        1 MOL1        -0.5486
     105    H50     27.492331   20.229048   20.658797 H          1 MOL1         0.3769
     106    C31     21.302448   14.166799   20.689053 C.3        1 MOL1         0.2972
     107    H51     20.927373   13.197203   20.336994 H          1 MOL1         0.0751
     108    O26     20.220027   15.053077   21.037091 O.3        1 MOL1        -0.3740
     109    C32     22.251257   13.987406   21.906585 C.3        1 MOL1         0.1003
     110    H52     23.085909   13.358620   21.570253 H          1 MOL1         0.0783
     111    O27     21.599552   13.337205   23.008156 O.3        1 MOL1        -0.5519
     112    H53     20.850826   13.922242   23.288824 H          1 MOL1         0.3769
     113    C33     22.836729   15.347251   22.357838 C.3        1 MOL1         0.1053
     114    H54     22.013889   15.955791   22.757033 H          1 MOL1         0.0783
     115    O28     23.813431   15.120740   23.379536 O.3        1 MOL1        -0.5519
     116    H55     23.422378   14.425651   23.956207 H          1 MOL1         0.3769
     117    C34     23.467860   16.111336   21.163740 C.3        1 MOL1         0.1018
     118    H56     24.408509   15.628260   20.866917 H          1 MOL1         0.0783
     119    C35     22.522833   16.151196   19.934526 C.3        1 MOL1         0.1043
     120    H57     21.675452   16.810621   20.159258 H          1 MOL1         0.0783
     121    O29     22.062110   14.808018   19.643427 O.3        1 MOL1        -0.3740
     122    C36     23.227831   16.680190   18.668625 C.3        1 MOL1         0.0138
     123    H58     24.017461   15.976916   18.372162 H          1 MOL1         0.0794
     124    H59     23.705254   17.642295   18.891006 H          1 MOL1         0.0794
     125    O30     22.277194   16.842569   17.614545 O.3        1 MOL1        -0.5486
     126    H60     21.805183   15.984643   17.539509 H          1 MOL1         0.3769
     127    C1      20.149068   18.727551   23.078572 C.3        1 MOL1        -0.2400
     128    H1      20.775031   19.205901   23.842839 H          1 MOL1         0.0971
     129    H2      19.098964   18.889736   23.354893 H          1 MOL1         0.0971
     130    H3      20.353233   17.650857   23.109917 H          1 MOL1         0.0971
     131    C2      20.457244   19.306395   21.682714 C.3        1 MOL1        -0.1385
     132    H4      21.487525   19.055885   21.401142 H          1 MOL1         0.0960
     133    H5      20.400974   20.401467   21.727046 H          1 MOL1         0.0960
     134    C3      19.494728   18.778322   20.598796 C.3        1 MOL1        -0.1409
     135    H6      19.510256   17.680568   20.592911 H          1 MOL1         0.0960
     136    H7      18.466817   19.079040   20.838256 H          1 MOL1         0.0960
     137    C4      19.889951   19.309575   19.203350 C.3        1 MOL1        -0.1409
     138    H8      20.925375   19.016286   18.980055 H          1 MOL1         0.0960
     139    H9      19.862786   20.406303   19.205545 H          1 MOL1         0.0960
     140    C5      18.958856   18.791267   18.089409 C.3        1 MOL1        -0.1409
     141    H10     18.888714   17.695739   18.139627 H          1 MOL1         0.0960
     142    H11     17.948908   19.189914   18.246541 H          1 MOL1         0.0960
     143    C6      19.454966   19.212645   16.690756 C.3        1 MOL1        -0.1450
     144    H12     20.463931   18.812654   16.521080 H          1 MOL1         0.0960
     145    H13     19.530287   20.307356   16.638753 H          1 MOL1         0.0960
     146    C7      18.507704   18.705717   15.590172 C.3        1 MOL1         0.0172
     147    H14     18.444925   17.614997   15.632840 H          1 MOL1         0.0934
     148    H15     17.504970   19.110780   15.752435 H          1 MOL1         0.0934
     149    N1      18.954904   19.097382   14.196886 N.4        1 MOL1        -0.5956
     150    H16     18.308841   18.751783   13.479346 H          1 MOL1         0.3624
     151    H17     19.881390   18.718598   13.975716 H          1 MOL1         0.3624
     152    H18     19.010047   20.115081   14.087806 H          1 MOL1         0.3624
@<TRIPOS>BOND
    1     1     2    1
    2     1     3    1
    3     1     4    1
    4     4     5    1
    5     4     6    1
    6     6     7    1
    7     4     8    1
    8     8     9    1
    9     8    10    1
   10    10    11    1
   11     8    12    1
   12    12    13    1
   13    12    14    1
   14    14    15    1
   15     1    16    1
   16    14    16    1
   17    14    17    1
   18    17    18    1
   19    17    19    1
   20    17    20    1
   21    20    21    1
   22    22    23    1
   23    22    24    1
   24    22    25    1
   25    25    26    1
   26    25    27    1
   27    27    28    1
   28    25    29    1
   29    29    30    1
   30    29    31    1
   31    31    32    1
   32     3    33    1
   33    29    33    1
   34    33    34    1
   35    33    35    1
   36    35    36    1
   37    22    37    1
   38    35    37    1
   39    35    38    1
   40    38    39    1
   41    38    40    1
   42    38    41    1
   43    41    42    1
   44    43    44    1
   45    43    45    1
   46    43    46    1
   47    46    47    1
   48    46    48    1
   49    48    49    1
   50    46    50    1
   51    50    51    1
   52    50    52    1
   53    52    53    1
   54    24    54    1
   55    50    54    1
   56    54    55    1
   57    54    56    1
   58    56    57    1
   59    43    58    1
   60    56    58    1
   61    56    59    1
   62    59    60    1
   63    59    61    1
   64    59    62    1
   65    62    63    1
   66    64    65    1
   67    64    66    1
   68    64    67    1
   69    67    68    1
   70    67    69    1
   71    69    70    1
   72    67    71    1
   73    71    72    1
   74    71    73    1
   75    73    74    1
   76    45    75    1
   77    71    75    1
   78    75    76    1
   79    75    77    1
   80    77    78    1
   81    64    79    1
   82    77    79    1
   83    77    80    1
   84    80    81    1
   85    80    82    1
   86    80    83    1
   87    83    84    1
   88    85    86    1
   89    85    87    1
   90    85    88    1
   91    88    89    1
   92    88    90    1
   93    90    91    1
   94    88    92    1
   95    92    93    1
   96    92    94    1
   97    94    95    1
   98    66    96    1
   99    92    96    1
  100    96    97    1
  101    96    98    1
  102    98    99    1
  103    85   100    1
  104    98   100    1
  105    98   101    1
  106   101   102    1
  107   101   103    1
  108   101   104    1
  109   104   105    1
  110   106   107    1
  111    12   108    1
  112   106   108    1
  113   106   109    1
  114   109   110    1
  115   109   111    1
  116   111   112    1
  117   109   113    1
  118   113   114    1
  119   113   115    1
  120   115   116    1
  121    87   117    1
  122   113   117    1
  123   117   118    1
  124   117   119    1
  125   119   120    1
  126   106   121    1
  127   119   121    1
  128   119   122    1
  129   122   123    1
  130   122   124    1
  131   122   125    1
  132   125   126    1
  133   127   128    1
  134   127   129    1
  135   127   130    1
  136   127   131    1
  137   131   132    1
  138   131   133    1
  139   131   134    1
  140   134   135    1
  141   134   136    1
  142   134   137    1
  143   137   138    1
  144   137   139    1
  145   137   140    1
  146   140   141    1
  147   140   142    1
  148   140   143    1
  149   143   144    1
  150   143   145    1
  151   143   146    1
  152   146   147    1
  153   146   148    1
  154   146   149    1
  155   149   150    1
  156   149   151    1
  157   149   152    1
@<TRIPOS>SUBSTRUCTURE
       1 MOL1            1 RESIDUE      1      MOL     
       2 MOL1          152 RESIDUE      1      MOL     
@<SCITEGIC>MOL_PROPERTY
VM2 Rank
SciTegic.value.IntegerValue
3

@<SCITEGIC>MOL_PROPERTY
Conf_Id
SciTegic.value.IntegerValue
28956

@<SCITEGIC>MOL_PROPERTY
Probability
SciTegic.value.DoubleValue
3.11

@<SCITEGIC>MOL_PROPERTY
Sum Probability
SciTegic.value.DoubleValue
11.78

@<SCITEGIC>MOL_PROPERTY
Delta G
SciTegic.value.DoubleValue
0.256

@<SCITEGIC>MOL_PROPERTY
G
SciTegic.value.DoubleValue
565.897

@<SCITEGIC>MOL_PROPERTY
E
SciTegic.value.DoubleValue
363.763

@<SCITEGIC>MOL_PROPERTY
-TS
SciTegic.value.DoubleValue
202.133

@<SCITEGIC>MOL_PROPERTY
U+W
SciTegic.value.DoubleValue
229.627

@<SCITEGIC>MOL_PROPERTY
U
SciTegic.value.DoubleValue
303.043

@<SCITEGIC>MOL_PROPERTY
W
SciTegic.value.DoubleValue
-73.416

@<SCITEGIC>MOL_PROPERTY
W(PB)
SciTegic.value.DoubleValue
-79.630

@<SCITEGIC>MOL_PROPERTY
W(SA)
SciTegic.value.DoubleValue
6.214

@<SCITEGIC>MOL_PROPERTY
Valence
SciTegic.value.DoubleValue
146.485

@<SCITEGIC>MOL_PROPERTY
Coulomb
SciTegic.value.DoubleValue
182.219

@<SCITEGIC>MOL_PROPERTY
VdW
SciTegic.value.DoubleValue
-25.661

@<SCITEGIC>MOL_PROPERTY
VdW6
SciTegic.value.DoubleValue
-176.762

@<SCITEGIC>MOL_PROPERTY
VdW12
SciTegic.value.DoubleValue
151.101

@<SCITEGIC>MOL_PROPERTY
Bond
SciTegic.value.DoubleValue
4.371

@<SCITEGIC>MOL_PROPERTY
Angle
SciTegic.value.DoubleValue
10.126

@<SCITEGIC>MOL_PROPERTY
Pdih
SciTegic.value.DoubleValue
131.987

@<SCITEGIC>MOL_PROPERTY
Idih
SciTegic.value.DoubleValue
0.000

@<SCITEGIC>MOL_PROPERTY
Tether
SciTegic.value.DoubleValue
0.000

@<TRIPOS>MOLECULE
CD_guest-s14_vm2_rndm.mol2 : vm2 host+ligand conformer 4
         152         157           2
SMALL
USER_CHARGES
 
@<TRIPOS>ATOM
       1    C1      16.194940   14.995139   20.811176 C.3        1 MOL1         0.2972
       2    H1      15.145302   14.835746   20.532651 H          1 MOL1         0.0751
       3    O1      16.468453   16.373020   21.137744 O.3        1 MOL1        -0.3740
       4    C2      16.577967   14.135345   22.040785 C.3        1 MOL1         0.1003
       5    H2      16.457616   13.080823   21.760544 H          1 MOL1         0.0783
       6    O2      15.730259   14.425988   23.163224 O.3        1 MOL1        -0.5519
       7    H3      15.642356   15.411219   23.224002 H          1 MOL1         0.3769
       8    C3      18.062175   14.370506   22.407102 C.3        1 MOL1         0.1053
       9    H4      18.159909   15.409697   22.743171 H          1 MOL1         0.0783
      10    O3      18.447898   13.484785   23.462092 O.3        1 MOL1        -0.5519
      11    H5      17.698896   13.505672   24.098968 H          1 MOL1         0.3769
      12    C4      18.989625   14.171539   21.181556 C.3        1 MOL1         0.1018
      13    H6      19.073023   13.096523   20.974043 H          1 MOL1         0.0783
      14    C5      18.470048   14.899596   19.910292 C.3        1 MOL1         0.1043
      15    H7      18.617520   15.980233   20.026996 H          1 MOL1         0.0783
      16    O4      17.063700   14.604216   19.728047 O.3        1 MOL1        -0.3740
      17    C6      19.201628   14.450752   18.629727 C.3        1 MOL1         0.0138
      18    H8      19.034752   13.376897   18.471650 H          1 MOL1         0.0794
      19    H9      20.278893   14.608541   18.754194 H          1 MOL1         0.0794
      20    O5      18.730046   15.203048   17.510772 O.3        1 MOL1        -0.5486
      21    H10     17.752583   15.103855   17.510600 H          1 MOL1         0.3769
      22    C7      14.822311   20.164697   21.088296 C.3        1 MOL1         0.2972
      23    H11     14.175726   21.048892   21.016295 H          1 MOL1         0.0751
      24    O6      16.219129   20.533585   21.097620 O.3        1 MOL1        -0.3740
      25    C8      14.485894   19.327192   22.352552 C.3        1 MOL1         0.1003
      26    H12     13.453906   18.971005   22.237058 H          1 MOL1         0.0783
      27    O7      14.571125   20.101011   23.557829 O.3        1 MOL1        -0.5519
      28    H13     15.518408   20.371695   23.658341 H          1 MOL1         0.3769
      29    C9      15.408802   18.088813   22.432139 C.3        1 MOL1         0.1053
      30    H14     16.439492   18.437753   22.574371 H          1 MOL1         0.0783
      31    O8      15.019311   17.269676   23.538964 O.3        1 MOL1        -0.5519
      32    H15     14.853715   17.897775   24.277002 H          1 MOL1         0.3769
      33    C10     15.343861   17.269077   21.119785 C.3        1 MOL1         0.1018
      34    H16     14.387601   16.729798   21.098301 H          1 MOL1         0.0783
      35    C11     15.479603   18.155086   19.849433 C.3        1 MOL1         0.1043
      36    H17     16.522165   18.490443   19.770889 H          1 MOL1         0.0783
      37    O9      14.604299   19.306371   19.948432 O.3        1 MOL1        -0.3740
      38    C12     15.127104   17.408963   18.543375 C.3        1 MOL1         0.0138
      39    H18     15.843102   16.590770   18.393177 H          1 MOL1         0.0794
      40    H19     15.241966   18.101584   17.698914 H          1 MOL1         0.0794
      41    O10     13.792554   16.894991   18.586188 O.3        1 MOL1        -0.5486
      42    H20     13.205804   17.667174   18.746955 H          1 MOL1         0.3769
      43    C13     18.722736   23.781923   21.863959 C.3        1 MOL1         0.2972
      44    H21     19.125991   24.752812   22.176778 H          1 MOL1         0.0751
      45    O11     19.655191   23.060962   21.031143 O.3        1 MOL1        -0.3740
      46    C14     18.364948   22.912276   23.100836 C.3        1 MOL1         0.1003
      47    H22     17.616534   23.469194   23.679607 H          1 MOL1         0.0783
      48    O12     19.505030   22.654831   23.936302 O.3        1 MOL1        -0.5519
      49    H23     20.130833   23.407128   23.811946 H          1 MOL1         0.3769
      50    C15     17.733952   21.572612   22.661368 C.3        1 MOL1         0.1053
      51    H24     18.497781   21.003420   22.119799 H          1 MOL1         0.0783
      52    O13     17.325403   20.852575   23.827889 O.3        1 MOL1        -0.5519
      53    H25     18.078460   20.959428   24.451509 H          1 MOL1         0.3769
      54    C16     16.539255   21.802370   21.704173 C.3        1 MOL1         0.1018
      55    H26     15.697263   22.203829   22.283622 H          1 MOL1         0.0783
      56    C17     16.901915   22.785390   20.556506 C.3        1 MOL1         0.1043
      57    H27     17.611900   22.286342   19.883251 H          1 MOL1         0.0783
      58    O14     17.509591   23.981257   21.105762 O.3        1 MOL1        -0.3740
      59    C18     15.681728   23.221472   19.714696 C.3        1 MOL1         0.0138
      60    H28     15.272804   22.343865   19.196465 H          1 MOL1         0.0794
      61    H29     16.018151   23.927919   18.944072 H          1 MOL1         0.0794
      62    O15     14.675025   23.822643   20.534501 O.3        1 MOL1        -0.5486
      63    H30     15.104691   24.583623   20.984846 H          1 MOL1         0.3769
      64    C19     23.733579   22.852224   20.508790 C.3        1 MOL1         0.2972
      65    H31     24.796692   22.952626   20.254884 H          1 MOL1         0.0751
      66    O16     23.405176   21.498354   20.893093 O.3        1 MOL1        -0.3740
      67    C20     23.320803   23.847861   21.622485 C.3        1 MOL1         0.1003
      68    H32     23.422526   24.856832   21.201615 H          1 MOL1         0.0783
      69    O17     24.159098   23.754733   22.782936 O.3        1 MOL1        -0.5519
      70    H33     23.970053   22.877149   23.200432 H          1 MOL1         0.3769
      71    C21     21.833912   23.638910   21.995101 C.3        1 MOL1         0.1053
      72    H34     21.731498   22.638282   22.435877 H          1 MOL1         0.0783
      73    O18     21.464752   24.634045   22.957042 O.3        1 MOL1        -0.5519
      74    H35     22.255813   24.735206   23.534498 H          1 MOL1         0.3769
      75    C22     20.915626   23.703869   20.737595 C.3        1 MOL1         0.1018
      76    H36     20.764071   24.752895   20.450649 H          1 MOL1         0.0783
      77    C23     21.496256   22.929894   19.518283 C.3        1 MOL1         0.1043
      78    H37     21.331086   21.856828   19.671837 H          1 MOL1         0.0783
      79    O19     22.915846   23.191290   19.369239 O.3        1 MOL1        -0.3740
      80    C24     20.802478   23.328987   18.199963 C.3        1 MOL1         0.0138
      81    H38     21.026444   24.380428   17.975338 H          1 MOL1         0.0794
      82    H39     19.714776   23.236455   18.321700 H          1 MOL1         0.0794
      83    O20     21.247294   22.481439   17.139090 O.3        1 MOL1        -0.5486
      84    H40     22.229982   22.504680   17.165500 H          1 MOL1         0.3769
      85    C25     24.726559   17.951120   22.510820 C.3        1 MOL1         0.2972
      86    H41     25.276255   17.128874   22.986782 H          1 MOL1         0.0751
      87    O21     23.520758   17.483247   21.872181 O.3        1 MOL1        -0.3740
      88    C26     24.354950   19.020262   23.566297 C.3        1 MOL1         0.1003
      89    H42     25.295530   19.391656   23.993548 H          1 MOL1         0.0783
      90    O22     23.548207   18.463900   24.617818 O.3        1 MOL1        -0.5519
      91    H43     23.592043   17.480916   24.527871 H          1 MOL1         0.3769
      92    C27     23.621017   20.212153   22.911394 C.3        1 MOL1         0.1053
      93    H44     22.640564   19.861667   22.572256 H          1 MOL1         0.0783
      94    O23     23.447483   21.229958   23.899627 O.3        1 MOL1        -0.5519
      95    H45     23.113778   20.749570   24.690908 H          1 MOL1         0.3769
      96    C28     24.372788   20.763049   21.670254 C.3        1 MOL1         0.1018
      97    H46     25.205915   21.395709   22.003506 H          1 MOL1         0.0783
      98    C29     24.902005   19.634370   20.740687 C.3        1 MOL1         0.1043
      99    H47     24.046065   19.209626   20.200243 H          1 MOL1         0.0783
     100    O24     25.549029   18.593062   21.514009 O.3        1 MOL1        -0.3740
     101    C30     25.911959   20.138964   19.686486 C.3        1 MOL1         0.0138
     102    H48     25.408836   20.855504   19.023660 H          1 MOL1         0.0794
     103    H49     26.231248   19.289565   19.067833 H          1 MOL1         0.0794
     104    O25     27.044037   20.753797   20.308186 O.3        1 MOL1        -0.5486
     105    H50     27.427743   20.078283   20.910808 H          1 MOL1         0.3769
     106    C31     21.411821   13.904585   21.450326 C.3        1 MOL1         0.2972
     107    H51     21.135492   12.855627   21.285269 H          1 MOL1         0.0751
     108    O26     20.254664   14.757474   21.543043 O.3        1 MOL1        -0.3740
     109    C32     22.207626   14.042145   22.772076 C.3        1 MOL1         0.1003
     110    H52     23.104707   13.415799   22.682255 H          1 MOL1         0.0783
     111    O27     21.427959   13.589568   23.890808 O.3        1 MOL1        -0.5519
     112    H53     20.475946   13.754594   23.674463 H          1 MOL1         0.3769
     113    C33     22.667657   15.502857   22.992156 C.3        1 MOL1         0.1053
     114    H54     21.773533   16.114855   23.163768 H          1 MOL1         0.0783
     115    O28     23.516816   15.552629   24.143425 O.3        1 MOL1        -0.5519
     116    H55     23.083970   14.958129   24.797781 H          1 MOL1         0.3769
     117    C34     23.400198   16.053518   21.738435 C.3        1 MOL1         0.1018
     118    H56     24.385116   15.576226   21.646104 H          1 MOL1         0.0783
     119    C35     22.602937   15.788408   20.435070 C.3        1 MOL1         0.1043
     120    H57     21.703317   16.417379   20.429935 H          1 MOL1         0.0783
     121    O29     22.245253   14.385106   20.374435 O.3        1 MOL1        -0.3740
     122    C36     23.435072   16.113111   19.176611 C.3        1 MOL1         0.0138
     123    H58     24.272206   15.406147   19.102202 H          1 MOL1         0.0794
     124    H59     23.859572   17.120360   19.272582 H          1 MOL1         0.0794
     125    O30     22.614882   16.047406   18.008975 O.3        1 MOL1        -0.5486
     126    H60     22.211594   15.152672   17.998612 H          1 MOL1         0.3769
     127    C1      19.842353   19.071919   19.281215 C.3        1 MOL1        -0.2400
     128    H1      18.801664   19.418312   19.239315 H          1 MOL1         0.0971
     129    H2      20.423815   19.666790   18.564419 H          1 MOL1         0.0971
     130    H3      19.871464   18.024931   18.950222 H          1 MOL1         0.0971
     131    C2      20.417744   19.221419   20.704554 C.3        1 MOL1        -0.1385
     132    H4      20.407641   20.280118   20.994945 H          1 MOL1         0.0960
     133    H5      21.469335   18.904960   20.706673 H          1 MOL1         0.0960
     134    C3      19.618624   18.396050   21.735149 C.3        1 MOL1        -0.1409
     135    H6      18.556714   18.669361   21.682835 H          1 MOL1         0.0960
     136    H7      19.684218   17.332444   21.481302 H          1 MOL1         0.0960
     137    C4      20.141105   18.612253   23.170909 C.3        1 MOL1        -0.1409
     138    H8      20.079076   19.677311   23.433858 H          1 MOL1         0.0960
     139    H9      21.200661   18.336947   23.215771 H          1 MOL1         0.0960
     140    C5      19.364199   17.771941   24.204913 C.3        1 MOL1        -0.1409
     141    H10     18.293393   18.013809   24.153492 H          1 MOL1         0.0960
     142    H11     19.468439   16.707326   23.960007 H          1 MOL1         0.0960
     143    C6      19.884702   18.012269   25.636867 C.3        1 MOL1        -0.1450
     144    H12     19.773232   19.073095   25.898037 H          1 MOL1         0.0960
     145    H13     20.957463   17.780289   25.682929 H          1 MOL1         0.0960
     146    C7      19.128119   17.145768   26.657571 C.3        1 MOL1         0.0172
     147    H14     18.062343   17.388318   26.628127 H          1 MOL1         0.0934
     148    H15     19.248342   16.089112   26.403072 H          1 MOL1         0.0934
     149    N1      19.616015   17.343834   28.077857 N.4        1 MOL1        -0.5956
     150    H16     19.503604   18.314863   28.386339 H          1 MOL1         0.3624
     151    H17     20.609277   17.108958   28.173857 H          1 MOL1         0.3624
     152    H18     19.102143   16.755723   28.742548 H          1 MOL1         0.3624
@<TRIPOS>BOND
    1     1     2    1
    2     1     3    1
    3     1     4    1
    4     4     5    1
    5     4     6    1
    6     6     7    1
    7     4     8    1
    8     8     9    1
    9     8    10    1
   10    10    11    1
   11     8    12    1
   12    12    13    1
   13    12    14    1
   14    14    15    1
   15     1    16    1
   16    14    16    1
   17    14    17    1
   18    17    18    1
   19    17    19    1
   20    17    20    1
   21    20    21    1
   22    22    23    1
   23    22    24    1
   24    22    25    1
   25    25    26    1
   26    25    27    1
   27    27    28    1
   28    25    29    1
   29    29    30    1
   30    29    31    1
   31    31    32    1
   32     3    33    1
   33    29    33    1
   34    33    34    1
   35    33    35    1
   36    35    36    1
   37    22    37    1
   38    35    37    1
   39    35    38    1
   40    38    39    1
   41    38    40    1
   42    38    41    1
   43    41    42    1
   44    43    44    1
   45    43    45    1
   46    43    46    1
   47    46    47    1
   48    46    48    1
   49    48    49    1
   50    46    50    1
   51    50    51    1
   52    50    52    1
   53    52    53    1
   54    24    54    1
   55    50    54    1
   56    54    55    1
   57    54    56    1
   58    56    57    1
   59    43    58    1
   60    56    58    1
   61    56    59    1
   62    59    60    1
   63    59    61    1
   64    59    62    1
   65    62    63    1
   66    64    65    1
   67    64    66    1
   68    64    67    1
   69    67    68    1
   70    67    69    1
   71    69    70    1
   72    67    71    1
   73    71    72    1
   74    71    73    1
   75    73    74    1
   76    45    75    1
   77    71    75    1
   78    75    76    1
   79    75    77    1
   80    77    78    1
   81    64    79    1
   82    77    79    1
   83    77    80    1
   84    80    81    1
   85    80    82    1
   86    80    83    1
   87    83    84    1
   88    85    86    1
   89    85    87    1
   90    85    88    1
   91    88    89    1
   92    88    90    1
   93    90    91    1
   94    88    92    1
   95    92    93    1
   96    92    94    1
   97    94    95    1
   98    66    96    1
   99    92    96    1
  100    96    97    1
  101    96    98    1
  102    98    99    1
  103    85   100    1
  104    98   100    1
  105    98   101    1
  106   101   102    1
  107   101   103    1
  108   101   104    1
  109   104   105    1
  110   106   107    1
  111    12   108    1
  112   106   108    1
  113   106   109    1
  114   109   110    1
  115   109   111    1
  116   111   112    1
  117   109   113    1
  118   113   114    1
  119   113   115    1
  120   115   116    1
  121    87   117    1
  122   113   117    1
  123   117   118    1
  124   117   119    1
  125   119   120    1
  126   106   121    1
  127   119   121    1
  128   119   122    1
  129   122   123    1
  130   122   124    1
  131   122   125    1
  132   125   126    1
  133   127   128    1
  134   127   129    1
  135   127   130    1
  136   127   131    1
  137   131   132    1
  138   131   133    1
  139   131   134    1
  140   134   135    1
  141   134   136    1
  142   134   137    1
  143   137   138    1
  144   137   139    1
  145   137   140    1
  146   140   141    1
  147   140   142    1
  148   140   143    1
  149   143   144    1
  150   143   145    1
  151   143   146    1
  152   146   147    1
  153   146   148    1
  154   146   149    1
  155   149   150    1
  156   149   151    1
  157   149   152    1
@<TRIPOS>SUBSTRUCTURE
       1 MOL1            1 RESIDUE      1      MOL     
       2 MOL1          152 RESIDUE      1      MOL     
@<SCITEGIC>MOL_PROPERTY
VM2 Rank
SciTegic.value.IntegerValue
4

@<SCITEGIC>MOL_PROPERTY
Conf_Id
SciTegic.value.IntegerValue
23354

@<SCITEGIC>MOL_PROPERTY
Probability
SciTegic.value.DoubleValue
1.47

@<SCITEGIC>MOL_PROPERTY
Sum Probability
SciTegic.value.DoubleValue
13.26

@<SCITEGIC>MOL_PROPERTY
Delta G
SciTegic.value.DoubleValue
0.701

@<SCITEGIC>MOL_PROPERTY
G
SciTegic.value.DoubleValue
566.342

@<SCITEGIC>MOL_PROPERTY
E
SciTegic.value.DoubleValue
364.882

@<SCITEGIC>MOL_PROPERTY
-TS
SciTegic.value.DoubleValue
201.460

@<SCITEGIC>MOL_PROPERTY
U+W
SciTegic.value.DoubleValue
230.745

@<SCITEGIC>MOL_PROPERTY
U
SciTegic.value.DoubleValue
315.924

@<SCITEGIC>MOL_PROPERTY
W
SciTegic.value.DoubleValue
-85.179

@<SCITEGIC>MOL_PROPERTY
W(PB)
SciTegic.value.DoubleValue
-91.420

@<SCITEGIC>MOL_PROPERTY
W(SA)
SciTegic.value.DoubleValue
6.241

@<SCITEGIC>MOL_PROPERTY
Valence
SciTegic.value.DoubleValue
146.714

@<SCITEGIC>MOL_PROPERTY
Coulomb
SciTegic.value.DoubleValue
195.628

@<SCITEGIC>MOL_PROPERTY
VdW
SciTegic.value.DoubleValue
-26.418

@<SCITEGIC>MOL_PROPERTY
VdW6
SciTegic.value.DoubleValue
-177.694

@<SCITEGIC>MOL_PROPERTY
VdW12
SciTegic.value.DoubleValue
151.276

@<SCITEGIC>MOL_PROPERTY
Bond
SciTegic.value.DoubleValue
4.391

@<SCITEGIC>MOL_PROPERTY
Angle
SciTegic.value.DoubleValue
10.020

@<SCITEGIC>MOL_PROPERTY
Pdih
SciTegic.value.DoubleValue
132.303

@<SCITEGIC>MOL_PROPERTY
Idih
SciTegic.value.DoubleValue
0.000

@<SCITEGIC>MOL_PROPERTY
Tether
SciTegic.value.DoubleValue
0.000

@<TRIPOS>MOLECULE
CD_guest-s14_vm2_rndm.mol2 : vm2 host+ligand conformer 5
         152         157           2
SMALL
USER_CHARGES
 
@<TRIPOS>ATOM
       1    C1      16.500932   15.333452   21.821228 C.3        1 MOL1         0.2972
       2    H1      15.440199   15.258205   22.091194 H          1 MOL1         0.0751
       3    O1      16.807015   16.604249   21.209948 O.3        1 MOL1        -0.3740
       4    C2      17.389290   15.160653   23.078762 C.3        1 MOL1         0.1003
       5    H2      17.174667   14.166855   23.492862 H          1 MOL1         0.0783
       6    O2      17.099013   16.158242   24.071593 O.3        1 MOL1        -0.5519
       7    H3      16.199284   16.512409   23.871180 H          1 MOL1         0.3769
       8    C3      18.886938   15.214256   22.700593 C.3        1 MOL1         0.1053
       9    H4      19.113425   16.229701   22.355462 H          1 MOL1         0.0783
      10    O3      19.665451   14.916743   23.862341 O.3        1 MOL1        -0.5519
      11    H5      19.260406   15.462032   24.574343 H          1 MOL1         0.3769
      12    C4      19.227610   14.239434   21.545272 C.3        1 MOL1         0.1018
      13    H6      19.274053   13.215971   21.940606 H          1 MOL1         0.0783
      14    C5      18.202038   14.319735   20.379607 C.3        1 MOL1         0.1043
      15    H7      18.364447   15.264600   19.844278 H          1 MOL1         0.0783
      16    O4      16.848144   14.283897   20.893288 O.3        1 MOL1        -0.3740
      17    C6      18.351860   13.172379   19.356070 C.3        1 MOL1         0.0138
      18    H8      19.335454   13.249739   18.873832 H          1 MOL1         0.0794
      19    H9      17.592891   13.296449   18.572045 H          1 MOL1         0.0794
      20    O5      18.211307   11.895815   19.986175 O.3        1 MOL1        -0.5486
      21    H10     17.329122   11.898337   20.420179 H          1 MOL1         0.3769
      22    C7      14.907221   20.283262   20.688151 C.3        1 MOL1         0.2972
      23    H11     14.223262   21.093373   20.403569 H          1 MOL1         0.0751
      24    O6      16.171019   20.791640   21.154392 O.3        1 MOL1        -0.3740
      25    C8      14.293004   19.396105   21.801000 C.3        1 MOL1         0.1003
      26    H12     13.370497   18.961198   21.394757 H          1 MOL1         0.0783
      27    O7      13.968368   20.162171   22.971670 O.3        1 MOL1        -0.5519
      28    H13     14.793376   20.629112   23.260145 H          1 MOL1         0.3769
      29    C9      15.247919   18.231457   22.162939 C.3        1 MOL1         0.1053
      30    H14     16.148638   18.659114   22.624597 H          1 MOL1         0.0783
      31    O8      14.583514   17.375030   23.098758 O.3        1 MOL1        -0.5519
      32    H15     14.104707   17.986482   23.704039 H          1 MOL1         0.3769
      33    C10     15.681136   17.446694   20.890190 C.3        1 MOL1         0.1018
      34    H16     14.836805   16.852088   20.516548 H          1 MOL1         0.0783
      35    C11     16.157936   18.395877   19.759122 C.3        1 MOL1         0.1043
      36    H17     17.119608   18.838333   20.047777 H          1 MOL1         0.0783
      37    O9      15.166743   19.432422   19.551849 O.3        1 MOL1        -0.3740
      38    C12     16.349661   17.656153   18.418853 C.3        1 MOL1         0.0138
      39    H18     15.381029   17.268899   18.075799 H          1 MOL1         0.0794
      40    H19     17.018177   16.798655   18.569496 H          1 MOL1         0.0794
      41    O10     16.908990   18.542219   17.447998 O.3        1 MOL1        -0.5486
      42    H20     16.329483   19.334768   17.438070 H          1 MOL1         0.3769
      43    C13     18.326111   24.156403   21.976383 C.3        1 MOL1         0.2972
      44    H21     18.751044   25.142127   22.205820 H          1 MOL1         0.0751
      45    O11     19.338057   23.212829   21.570566 O.3        1 MOL1        -0.3740
      46    C14     17.589385   23.586189   23.212746 C.3        1 MOL1         0.1003
      47    H22     16.746093   24.254007   23.431995 H          1 MOL1         0.0783
      48    O12     18.456477   23.529860   24.356446 O.3        1 MOL1        -0.5519
      49    H23     19.381402   23.656518   24.029346 H          1 MOL1         0.3769
      50    C15     17.021585   22.183354   22.900680 C.3        1 MOL1         0.1053
      51    H24     17.872548   21.503026   22.785671 H          1 MOL1         0.0783
      52    O13     16.211012   21.743849   23.994234 O.3        1 MOL1        -0.5519
      53    H25     16.741663   21.948060   24.796846 H          1 MOL1         0.3769
      54    C16     16.196264   22.164452   21.586784 C.3        1 MOL1         0.1018
      55    H26     15.189594   22.546279   21.803554 H          1 MOL1         0.0783
      56    C17     16.841318   22.981826   20.428364 C.3        1 MOL1         0.1043
      57    H27     17.666306   22.387733   20.013251 H          1 MOL1         0.0783
      58    O14     17.355829   24.248550   20.913254 O.3        1 MOL1        -0.3740
      59    C18     15.865740   23.281757   19.268807 C.3        1 MOL1         0.0138
      60    H28     15.562250   22.335735   18.801406 H          1 MOL1         0.0794
      61    H29     16.394775   23.866994   18.504712 H          1 MOL1         0.0794
      62    O15     14.715591   23.994814   19.732005 O.3        1 MOL1        -0.5486
      63    H30     15.051908   24.815458   20.156312 H          1 MOL1         0.3769
      64    C19     23.385994   22.742783   20.888269 C.3        1 MOL1         0.2972
      65    H31     24.444354   22.859433   20.621730 H          1 MOL1         0.0751
      66    O16     23.045913   21.351982   21.080570 O.3        1 MOL1        -0.3740
      67    C20     23.035963   23.573179   22.155921 C.3        1 MOL1         0.1003
      68    H32     23.231613   24.625254   21.910951 H          1 MOL1         0.0783
      69    O17     23.838853   23.208870   23.288180 O.3        1 MOL1        -0.5519
      70    H33     23.592167   22.278829   23.523363 H          1 MOL1         0.3769
      71    C21     21.534176   23.440140   22.501344 C.3        1 MOL1         0.1053
      72    H34     21.348376   22.401516   22.808055 H          1 MOL1         0.0783
      73    O18     21.210633   24.326536   23.576825 O.3        1 MOL1        -0.5519
      74    H35     21.957142   24.242928   24.212155 H          1 MOL1         0.3769
      75    C22     20.639491   23.747822   21.273874 C.3        1 MOL1         0.1018
      76    H36     20.610461   24.830607   21.092467 H          1 MOL1         0.0783
      77    C23     21.128823   23.034589   19.987287 C.3        1 MOL1         0.1043
      78    H37     20.907175   21.966686   20.080972 H          1 MOL1         0.0783
      79    O19     22.553612   23.243419   19.820951 O.3        1 MOL1        -0.3740
      80    C24     20.426353   23.558756   18.718560 C.3        1 MOL1         0.0138
      81    H38     20.731666   24.597823   18.536381 H          1 MOL1         0.0794
      82    H39     19.340061   23.553008   18.874113 H          1 MOL1         0.0794
      83    O20     20.761416   22.730722   17.603161 O.3        1 MOL1        -0.5486
      84    H40     21.742751   22.706110   17.566919 H          1 MOL1         0.3769
      85    C25     24.762975   17.667300   22.029513 C.3        1 MOL1         0.2972
      86    H41     25.439592   16.872876   22.369800 H          1 MOL1         0.0751
      87    O21     23.636506   17.128816   21.308685 O.3        1 MOL1        -0.3740
      88    C26     24.258959   18.502016   23.238973 C.3        1 MOL1         0.1003
      89    H42     25.146159   18.924611   23.728363 H          1 MOL1         0.0783
      90    O22     23.537257   17.702345   24.189185 O.3        1 MOL1        -0.5519
      91    H43     23.786682   16.760396   24.030206 H          1 MOL1         0.3769
      92    C27     23.366850   19.672246   22.770924 C.3        1 MOL1         0.1053
      93    H44     22.451419   19.241693   22.348600 H          1 MOL1         0.0783
      94    O23     23.047253   20.491511   23.899709 O.3        1 MOL1        -0.5519
      95    H45     22.781361   19.851137   24.597687 H          1 MOL1         0.3769
      96    C28     24.059569   20.511776   21.670474 C.3        1 MOL1         0.1018
      97    H46     24.863913   21.100397   22.130576 H          1 MOL1         0.0783
      98    C29     24.650682   19.616403   20.546692 C.3        1 MOL1         0.1043
      99    H47     23.819324   19.175236   19.980516 H          1 MOL1         0.0783
     100    O24     25.458031   18.564652   21.135807 O.3        1 MOL1        -0.3740
     101    C30     25.539459   20.389339   19.546875 C.3        1 MOL1         0.0138
     102    H48     24.919054   21.114730   19.004006 H          1 MOL1         0.0794
     103    H49     25.936525   19.681700   18.806799 H          1 MOL1         0.0794
     104    O25     26.610416   21.060887   20.216609 O.3        1 MOL1        -0.5486
     105    H50     27.111911   20.366967   20.699711 H          1 MOL1         0.3769
     106    C31     21.511949   13.667956   20.820758 C.3        1 MOL1         0.2972
     107    H51     21.081958   12.681337   20.604708 H          1 MOL1         0.0751
     108    O26     20.488808   14.670097   21.001824 O.3        1 MOL1        -0.3740
     109    C32     22.436001   13.625779   22.063540 C.3        1 MOL1         0.1003
     110    H52     23.285213   12.978241   21.808693 H          1 MOL1         0.0783
     111    O27     21.773818   13.081239   23.213760 O.3        1 MOL1        -0.5519
     112    H53     21.039125   13.704121   23.444453 H          1 MOL1         0.3769
     113    C33     22.991199   15.038229   22.367819 C.3        1 MOL1         0.1053
     114    H54     22.152475   15.667359   22.698004 H          1 MOL1         0.0783
     115    O28     23.961571   14.931876   23.415611 O.3        1 MOL1        -0.5519
     116    H55     23.584126   14.276948   24.046369 H          1 MOL1         0.3769
     117    C34     23.623802   15.700073   21.108593 C.3        1 MOL1         0.1018
     118    H56     24.639095   15.308081   20.961503 H          1 MOL1         0.0783
     119    C35     22.813007   15.466013   19.802978 C.3        1 MOL1         0.1043
     120    H57     21.956476   16.151183   19.791925 H          1 MOL1         0.0783
     121    O29     22.349507   14.094454   19.728693 O.3        1 MOL1        -0.3740
     122    C36     23.660250   15.739815   18.543995 C.3        1 MOL1         0.0138
     123    H58     24.524927   15.062790   18.534142 H          1 MOL1         0.0794
     124    H59     24.040525   16.769678   18.580149 H          1 MOL1         0.0794
     125    O30     22.862425   15.546613   17.374974 O.3        1 MOL1        -0.5486
     126    H60     22.457414   14.655584   17.479109 H          1 MOL1         0.3769
     127    C1      19.479063   18.960235   22.992797 C.3        1 MOL1        -0.2400
     128    H1      19.339906   19.728773   23.763921 H          1 MOL1         0.0971
     129    H2      18.576466   18.337180   22.979140 H          1 MOL1         0.0971
     130    H3      20.328972   18.332870   23.292815 H          1 MOL1         0.0971
     131    C2      19.720687   19.610741   21.615722 C.3        1 MOL1        -0.1385
     132    H4      20.537096   20.339055   21.698956 H          1 MOL1         0.0960
     133    H5      18.828833   20.175982   21.318590 H          1 MOL1         0.0960
     134    C3      20.054092   18.575664   20.519538 C.3        1 MOL1        -0.1409
     135    H6      20.977679   18.042011   20.779906 H          1 MOL1         0.0960
     136    H7      19.255320   17.823877   20.466887 H          1 MOL1         0.0960
     137    C4      20.210532   19.266495   19.146599 C.3        1 MOL1        -0.1409
     138    H8      21.054601   19.967316   19.182970 H          1 MOL1         0.0960
     139    H9      19.310332   19.861463   18.936441 H          1 MOL1         0.0960
     140    C5      20.438225   18.271383   17.989886 C.3        1 MOL1        -0.1409
     141    H10     21.391063   17.749856   18.139451 H          1 MOL1         0.0960
     142    H11     19.646058   17.509829   17.993534 H          1 MOL1         0.0960
     143    C6      20.438721   19.003884   16.627685 C.3        1 MOL1        -0.1450
     144    H12     21.211835   19.783653   16.615728 H          1 MOL1         0.0960
     145    H13     19.476913   19.518768   16.499391 H          1 MOL1         0.0960
     146    C7      20.640749   18.054010   15.433198 C.3        1 MOL1         0.0172
     147    H14     19.918161   17.235214   15.485667 H          1 MOL1         0.0934
     148    H15     20.467486   18.603498   14.504118 H          1 MOL1         0.0934
     149    N1      22.031606   17.457461   15.355079 N.4        1 MOL1        -0.5956
     150    H16     22.144008   16.858985   14.530894 H          1 MOL1         0.3624
     151    H17     22.247614   16.866890   16.175532 H          1 MOL1         0.3624
     152    H18     22.756125   18.179371   15.306419 H          1 MOL1         0.3624
@<TRIPOS>BOND
    1     1     2    1
    2     1     3    1
    3     1     4    1
    4     4     5    1
    5     4     6    1
    6     6     7    1
    7     4     8    1
    8     8     9    1
    9     8    10    1
   10    10    11    1
   11     8    12    1
   12    12    13    1
   13    12    14    1
   14    14    15    1
   15     1    16    1
   16    14    16    1
   17    14    17    1
   18    17    18    1
   19    17    19    1
   20    17    20    1
   21    20    21    1
   22    22    23    1
   23    22    24    1
   24    22    25    1
   25    25    26    1
   26    25    27    1
   27    27    28    1
   28    25    29    1
   29    29    30    1
   30    29    31    1
   31    31    32    1
   32     3    33    1
   33    29    33    1
   34    33    34    1
   35    33    35    1
   36    35    36    1
   37    22    37    1
   38    35    37    1
   39    35    38    1
   40    38    39    1
   41    38    40    1
   42    38    41    1
   43    41    42    1
   44    43    44    1
   45    43    45    1
   46    43    46    1
   47    46    47    1
   48    46    48    1
   49    48    49    1
   50    46    50    1
   51    50    51    1
   52    50    52    1
   53    52    53    1
   54    24    54    1
   55    50    54    1
   56    54    55    1
   57    54    56    1
   58    56    57    1
   59    43    58    1
   60    56    58    1
   61    56    59    1
   62    59    60    1
   63    59    61    1
   64    59    62    1
   65    62    63    1
   66    64    65    1
   67    64    66    1
   68    64    67    1
   69    67    68    1
   70    67    69    1
   71    69    70    1
   72    67    71    1
   73    71    72    1
   74    71    73    1
   75    73    74    1
   76    45    75    1
   77    71    75    1
   78    75    76    1
   79    75    77    1
   80    77    78    1
   81    64    79    1
   82    77    79    1
   83    77    80    1
   84    80    81    1
   85    80    82    1
   86    80    83    1
   87    83    84    1
   88    85    86    1
   89    85    87    1
   90    85    88    1
   91    88    89    1
   92    88    90    1
   93    90    91    1
   94    88    92    1
   95    92    93    1
   96    92    94    1
   97    94    95    1
   98    66    96    1
   99    92    96    1
  100    96    97    1
  101    96    98    1
  102    98    99    1
  103    85   100    1
  104    98   100    1
  105    98   101    1
  106   101   102    1
  107   101   103    1
  108   101   104    1
  109   104   105    1
  110   106   107    1
  111    12   108    1
  112   106   108    1
  113   106   109    1
  114   109   110    1
  115   109   111    1
  116   111   112    1
  117   109   113    1
  118   113   114    1
  119   113   115    1
  120   115   116    1
  121    87   117    1
  122   113   117    1
  123   117   118    1
  124   117   119    1
  125   119   120    1
  126   106   121    1
  127   119   121    1
  128   119   122    1
  129   122   123    1
  130   122   124    1
  131   122   125    1
  132   125   126    1
  133   127   128    1
  134   127   129    1
  135   127   130    1
  136   127   131    1
  137   131   132    1
  138   131   133    1
  139   131   134    1
  140   134   135    1
  141   134   136    1
  142   134   137    1
  143   137   138    1
  144   137   139    1
  145   137   140    1
  146   140   141    1
  147   140   142    1
  148   140   143    1
  149   143   144    1
  150   143   145    1
  151   143   146    1
  152   146   147    1
  153   146   148    1
  154   146   149    1
  155   149   150    1
  156   149   151    1
  157   149   152    1
@<TRIPOS>SUBSTRUCTURE
       1 MOL1            1 RESIDUE      1      MOL     
       2 MOL1          152 RESIDUE      1      MOL     
@<SCITEGIC>MOL_PROPERTY
VM2 Rank
SciTegic.value.IntegerValue
5

@<SCITEGIC>MOL_PROPERTY
Conf_Id
SciTegic.value.IntegerValue
27842

@<SCITEGIC>MOL_PROPERTY
Probability
SciTegic.value.DoubleValue
1.41

@<SCITEGIC>MOL_PROPERTY
Sum Probability
SciTegic.value.DoubleValue
14.66

@<SCITEGIC>MOL_PROPERTY
Delta G
SciTegic.value.DoubleValue
0.729

@<SCITEGIC>MOL_PROPERTY
G
SciTegic.value.DoubleValue
566.370

@<SCITEGIC>MOL_PROPERTY
E
SciTegic.value.DoubleValue
362.465

@<SCITEGIC>MOL_PROPERTY
-TS
SciTegic.value.DoubleValue
203.905

@<SCITEGIC>MOL_PROPERTY
U+W
SciTegic.value.DoubleValue
228.329

@<SCITEGIC>MOL_PROPERTY
U
SciTegic.value.DoubleValue
297.443

@<SCITEGIC>MOL_PROPERTY
W
SciTegic.value.DoubleValue
-69.114

@<SCITEGIC>MOL_PROPERTY
W(PB)
SciTegic.value.DoubleValue
-75.215

@<SCITEGIC>MOL_PROPERTY
W(SA)
SciTegic.value.DoubleValue
6.101

@<SCITEGIC>MOL_PROPERTY
Valence
SciTegic.value.DoubleValue
146.581

@<SCITEGIC>MOL_PROPERTY
Coulomb
SciTegic.value.DoubleValue
175.382

@<SCITEGIC>MOL_PROPERTY
VdW
SciTegic.value.DoubleValue
-24.520

@<SCITEGIC>MOL_PROPERTY
VdW6
SciTegic.value.DoubleValue
-178.601

@<SCITEGIC>MOL_PROPERTY
VdW12
SciTegic.value.DoubleValue
154.080

@<SCITEGIC>MOL_PROPERTY
Bond
SciTegic.value.DoubleValue
4.409

@<SCITEGIC>MOL_PROPERTY
Angle
SciTegic.value.DoubleValue
10.460

@<SCITEGIC>MOL_PROPERTY
Pdih
SciTegic.value.DoubleValue
131.712

@<SCITEGIC>MOL_PROPERTY
Idih
SciTegic.value.DoubleValue
0.000

@<SCITEGIC>MOL_PROPERTY
Tether
SciTegic.value.DoubleValue
0.000

@<TRIPOS>MOLECULE
CD_guest-s14_vm2_rndm.mol2 : vm2 host+ligand conformer 6
         152         157           2
SMALL
USER_CHARGES
 
@<TRIPOS>ATOM
       1    C1      16.217884   15.228356   21.777727 C.3        1 MOL1         0.2972
       2    H1      15.165393   15.049090   22.032709 H          1 MOL1         0.0751
       3    O1      16.412245   16.531293   21.191949 O.3        1 MOL1        -0.3740
       4    C2      17.112217   15.094489   23.038114 C.3        1 MOL1         0.1003
       5    H2      17.010137   14.063120   23.400193 H          1 MOL1         0.0783
       6    O2      16.717242   15.998283   24.082209 O.3        1 MOL1        -0.5519
       7    H3      15.889588   16.449239   23.785794 H          1 MOL1         0.3769
       8    C3      18.594501   15.331971   22.678391 C.3        1 MOL1         0.1053
       9    H4      18.696851   16.382656   22.381852 H          1 MOL1         0.0783
      10    O3      19.401353   15.071026   23.830838 O.3        1 MOL1        -0.5519
      11    H5      18.927535   15.519512   24.567447 H          1 MOL1         0.3769
      12    C4      19.047533   14.447660   21.490135 C.3        1 MOL1         0.1018
      13    H6      19.189838   13.420372   21.850683 H          1 MOL1         0.0783
      14    C5      18.026503   14.456959   20.316103 C.3        1 MOL1         0.1043
      15    H7      18.087286   15.432240   19.814897 H          1 MOL1         0.0783
      16    O4      16.681105   14.251324   20.820522 O.3        1 MOL1        -0.3740
      17    C6      18.302661   13.372688   19.250943 C.3        1 MOL1         0.0138
      18    H8      19.265142   13.584014   18.766544 H          1 MOL1         0.0794
      19    H9      17.527476   13.433854   18.475358 H          1 MOL1         0.0794
      20    O5      18.320268   12.066401   19.833442 O.3        1 MOL1        -0.5486
      21    H10     17.445795   11.944893   20.265868 H          1 MOL1         0.3769
      22    C7      14.650614   20.185044   20.643284 C.3        1 MOL1         0.2972
      23    H11     14.039081   21.065587   20.407367 H          1 MOL1         0.0751
      24    O6      16.031605   20.543918   20.871280 O.3        1 MOL1        -0.3740
      25    C8      14.086959   19.419600   21.868858 C.3        1 MOL1         0.1003
      26    H12     13.092497   19.051191   21.584850 H          1 MOL1         0.0783
      27    O7      13.951655   20.262127   23.022304 O.3        1 MOL1        -0.5519
      28    H13     14.867381   20.527941   23.290248 H          1 MOL1         0.3769
      29    C9      14.971779   18.192638   22.194088 C.3        1 MOL1         0.1053
      30    H14     15.942177   18.560967   22.555749 H          1 MOL1         0.0783
      31    O8      14.333007   17.419991   23.215530 O.3        1 MOL1        -0.5519
      32    H15     13.975777   18.081655   23.850774 H          1 MOL1         0.3769
      33    C10     15.228503   17.311995   20.939742 C.3        1 MOL1         0.1018
      34    H16     14.354436   16.674151   20.751758 H          1 MOL1         0.0783
      35    C11     15.528377   18.130807   19.654555 C.3        1 MOL1         0.1043
      36    H17     16.562049   18.492368   19.700612 H          1 MOL1         0.0783
      37    O9      14.616236   19.251756   19.544717 O.3        1 MOL1        -0.3740
      38    C12     15.378306   17.273656   18.381076 C.3        1 MOL1         0.0138
      39    H18     14.346303   16.904573   18.311434 H          1 MOL1         0.0794
      40    H19     16.042327   16.401548   18.451205 H          1 MOL1         0.0794
      41    O10     15.707739   18.053793   17.231041 O.3        1 MOL1        -0.5486
      42    H20     15.153107   18.864049   17.298555 H          1 MOL1         0.3769
      43    C13     18.501809   23.726831   21.907915 C.3        1 MOL1         0.2972
      44    H21     18.898147   24.691620   22.248336 H          1 MOL1         0.0751
      45    O11     19.517747   22.935287   21.259465 O.3        1 MOL1        -0.3740
      46    C14     17.923696   22.925843   23.105176 C.3        1 MOL1         0.1003
      47    H22     17.132765   23.542495   23.551683 H          1 MOL1         0.0783
      48    O12     18.924041   22.653011   24.099747 O.3        1 MOL1        -0.5519
      49    H23     19.625901   23.339770   23.999856 H          1 MOL1         0.3769
      50    C15     17.288839   21.598959   22.630280 C.3        1 MOL1         0.1053
      51    H24     18.092417   20.953944   22.255808 H          1 MOL1         0.0783
      52    O13     16.646579   20.973538   23.744744 O.3        1 MOL1        -0.5519
      53    H25     17.305530   21.037692   24.472699 H          1 MOL1         0.3769
      54    C16     16.281840   21.827982   21.475882 C.3        1 MOL1         0.1018
      55    H26     15.366686   22.274978   21.886262 H          1 MOL1         0.0783
      56    C17     16.866576   22.746671   20.367594 C.3        1 MOL1         0.1043
      57    H27     17.651721   22.191793   19.836618 H          1 MOL1         0.0783
      58    O14     17.431300   23.941299   20.962828 O.3        1 MOL1        -0.3740
      59    C18     15.817628   23.189544   19.323225 C.3        1 MOL1         0.0138
      60    H28     15.458263   22.305111   18.780473 H          1 MOL1         0.0794
      61    H29     16.304212   23.846832   18.590208 H          1 MOL1         0.0794
      62    O15     14.720596   23.864997   19.945286 O.3        1 MOL1        -0.5486
      63    H30     15.106469   24.626924   20.432214 H          1 MOL1         0.3769
      64    C19     23.659201   22.803239   21.055652 C.3        1 MOL1         0.2972
      65    H31     24.727940   22.977180   20.874899 H          1 MOL1         0.0751
      66    O16     23.391960   21.436597   21.424799 O.3        1 MOL1        -0.3740
      67    C20     23.122180   23.722556   22.179986 C.3        1 MOL1         0.1003
      68    H32     23.246252   24.758625   21.838769 H          1 MOL1         0.0783
      69    O17     23.853835   23.544408   23.402944 O.3        1 MOL1        -0.5519
      70    H33     23.836812   22.578459   23.623258 H          1 MOL1         0.3769
      71    C21     21.610708   23.474498   22.410811 C.3        1 MOL1         0.1053
      72    H34     21.491007   22.461658   22.820360 H          1 MOL1         0.0783
      73    O18     21.135785   24.438738   23.357022 O.3        1 MOL1        -0.5519
      74    H35     21.859053   24.518137   24.020600 H          1 MOL1         0.3769
      75    C22     20.808478   23.555317   21.077618 C.3        1 MOL1         0.1018
      76    H36     20.703622   24.604955   20.772330 H          1 MOL1         0.0783
      77    C23     21.491290   22.767706   19.926545 C.3        1 MOL1         0.1043
      78    H37     21.368604   21.694184   20.112168 H          1 MOL1         0.0783
      79    O19     22.899129   23.101938   19.866324 O.3        1 MOL1        -0.3740
      80    C24     20.869243   23.088157   18.551585 C.3        1 MOL1         0.0138
      81    H38     21.084231   24.132629   18.289120 H          1 MOL1         0.0794
      82    H39     19.778473   22.976538   18.612322 H          1 MOL1         0.0794
      83    O20     21.391915   22.200490   17.561212 O.3        1 MOL1        -0.5486
      84    H40     22.369485   22.280276   17.610616 H          1 MOL1         0.3769
      85    C25     25.021659   17.760841   22.116375 C.3        1 MOL1         0.2972
      86    H41     25.623351   16.866565   22.324368 H          1 MOL1         0.0751
      87    O21     23.700959   17.419739   21.644622 O.3        1 MOL1        -0.3740
      88    C26     24.892386   18.622969   23.396102 C.3        1 MOL1         0.1003
      89    H42     25.903052   18.947352   23.676276 H          1 MOL1         0.0783
      90    O22     24.322449   17.867843   24.476999 O.3        1 MOL1        -0.5519
      91    H43     24.031824   16.998973   24.104100 H          1 MOL1         0.3769
      92    C27     24.043589   19.884040   23.120738 C.3        1 MOL1         0.1053
      93    H44     23.011968   19.554392   22.962463 H          1 MOL1         0.0783
      94    O23     24.089664   20.747507   24.260056 O.3        1 MOL1        -0.5519
      95    H45     23.941529   20.153479   25.029954 H          1 MOL1         0.3769
      96    C28     24.516376   20.649060   21.856395 C.3        1 MOL1         0.1018
      97    H46     25.377539   21.273706   22.129048 H          1 MOL1         0.0783
      98    C29     24.883423   19.720973   20.662183 C.3        1 MOL1         0.1043
      99    H47     23.947635   19.372147   20.206351 H          1 MOL1         0.0783
     100    O24     25.655660   18.579786   21.112965 O.3        1 MOL1        -0.3740
     101    C30     25.694398   20.434032   19.557589 C.3        1 MOL1         0.0138
     102    H48     25.078549   21.229184   19.117036 H          1 MOL1         0.0794
     103    H49     25.914612   19.712499   18.759411 H          1 MOL1         0.0794
     104    O25     26.907903   20.982175   20.079956 O.3        1 MOL1        -0.5486
     105    H50     27.400055   20.231037   20.480222 H          1 MOL1         0.3769
     106    C31     21.355532   14.110736   20.718568 C.3        1 MOL1         0.2972
     107    H51     20.978462   13.138909   20.374832 H          1 MOL1         0.0751
     108    O26     20.274667   15.023135   20.999220 O.3        1 MOL1        -0.3740
     109    C32     22.258052   13.947819   21.973481 C.3        1 MOL1         0.1003
     110    H52     23.104877   13.315180   21.677184 H          1 MOL1         0.0783
     111    O27     21.568904   13.312643   23.060445 O.3        1 MOL1        -0.5519
     112    H53     20.830259   13.917152   23.325457 H          1 MOL1         0.3769
     113    C33     22.824750   15.316102   22.421758 C.3        1 MOL1         0.1053
     114    H54     21.986312   15.934924   22.769903 H          1 MOL1         0.0783
     115    O28     23.757760   15.117087   23.488629 O.3        1 MOL1        -0.5519
     116    H55     23.340209   14.443218   24.071416 H          1 MOL1         0.3769
     117    C34     23.510984   16.050602   21.241635 C.3        1 MOL1         0.1018
     118    H56     24.464830   15.559875   21.005596 H          1 MOL1         0.0783
     119    C35     22.632923   16.061212   19.962934 C.3        1 MOL1         0.1043
     120    H57     21.785580   16.740286   20.118222 H          1 MOL1         0.0783
     121    O29     22.166979   14.715117   19.689620 O.3        1 MOL1        -0.3740
     122    C36     23.416909   16.536246   18.722505 C.3        1 MOL1         0.0138
     123    H58     24.222167   15.821424   18.506686 H          1 MOL1         0.0794
     124    H59     23.881603   17.507223   18.933040 H          1 MOL1         0.0794
     125    O30     22.535409   16.650954   17.604737 O.3        1 MOL1        -0.5486
     126    H60     22.068920   15.789368   17.538306 H          1 MOL1         0.3769
     127    C1      20.093272   18.796445   23.125260 C.3        1 MOL1        -0.2400
     128    H1      20.639765   19.352537   23.898009 H          1 MOL1         0.0971
     129    H2      19.020551   18.884543   23.342313 H          1 MOL1         0.0971
     130    H3      20.378114   17.740799   23.211129 H          1 MOL1         0.0971
     131    C2      20.428435   19.345972   21.723948 C.3        1 MOL1        -0.1385
     132    H4      21.489764   19.173796   21.508304 H          1 MOL1         0.0960
     133    H5      20.277787   20.432104   21.717120 H          1 MOL1         0.0960
     134    C3      19.580823   18.693365   20.613152 C.3        1 MOL1        -0.1409
     135    H6      19.693612   17.603704   20.662641 H          1 MOL1         0.0960
     136    H7      18.517884   18.912001   20.779191 H          1 MOL1         0.0960
     137    C4      20.016298   19.193769   19.218121 C.3        1 MOL1        -0.1409
     138    H8      21.106755   19.096097   19.119867 H          1 MOL1         0.0960
     139    H9      19.783548   20.262558   19.121036 H          1 MOL1         0.0960
     140    C5      19.340573   18.414282   18.070562 C.3        1 MOL1        -0.1409
     141    H10     19.526380   17.338816   18.198896 H          1 MOL1         0.0960
     142    H11     18.255242   18.563423   18.114369 H          1 MOL1         0.0960
     143    C6      19.882158   18.866564   16.694767 C.3        1 MOL1        -0.1450
     144    H12     20.975268   18.760499   16.685967 H          1 MOL1         0.0960
     145    H13     19.673792   19.933325   16.536093 H          1 MOL1         0.0960
     146    C7      19.308239   18.040146   15.529337 C.3        1 MOL1         0.0172
     147    H14     19.849255   18.286400   14.611822 H          1 MOL1         0.0934
     148    H15     19.446177   16.974581   15.730996 H          1 MOL1         0.0934
     149    N1      17.836038   18.287994   15.269469 N.4        1 MOL1        -0.5956
     150    H16     17.483785   17.722267   14.491030 H          1 MOL1         0.3624
     151    H17     17.650904   19.268165   15.037619 H          1 MOL1         0.3624
     152    H18     17.247760   18.062747   16.088909 H          1 MOL1         0.3624
@<TRIPOS>BOND
    1     1     2    1
    2     1     3    1
    3     1     4    1
    4     4     5    1
    5     4     6    1
    6     6     7    1
    7     4     8    1
    8     8     9    1
    9     8    10    1
   10    10    11    1
   11     8    12    1
   12    12    13    1
   13    12    14    1
   14    14    15    1
   15     1    16    1
   16    14    16    1
   17    14    17    1
   18    17    18    1
   19    17    19    1
   20    17    20    1
   21    20    21    1
   22    22    23    1
   23    22    24    1
   24    22    25    1
   25    25    26    1
   26    25    27    1
   27    27    28    1
   28    25    29    1
   29    29    30    1
   30    29    31    1
   31    31    32    1
   32     3    33    1
   33    29    33    1
   34    33    34    1
   35    33    35    1
   36    35    36    1
   37    22    37    1
   38    35    37    1
   39    35    38    1
   40    38    39    1
   41    38    40    1
   42    38    41    1
   43    41    42    1
   44    43    44    1
   45    43    45    1
   46    43    46    1
   47    46    47    1
   48    46    48    1
   49    48    49    1
   50    46    50    1
   51    50    51    1
   52    50    52    1
   53    52    53    1
   54    24    54    1
   55    50    54    1
   56    54    55    1
   57    54    56    1
   58    56    57    1
   59    43    58    1
   60    56    58    1
   61    56    59    1
   62    59    60    1
   63    59    61    1
   64    59    62    1
   65    62    63    1
   66    64    65    1
   67    64    66    1
   68    64    67    1
   69    67    68    1
   70    67    69    1
   71    69    70    1
   72    67    71    1
   73    71    72    1
   74    71    73    1
   75    73    74    1
   76    45    75    1
   77    71    75    1
   78    75    76    1
   79    75    77    1
   80    77    78    1
   81    64    79    1
   82    77    79    1
   83    77    80    1
   84    80    81    1
   85    80    82    1
   86    80    83    1
   87    83    84    1
   88    85    86    1
   89    85    87    1
   90    85    88    1
   91    88    89    1
   92    88    90    1
   93    90    91    1
   94    88    92    1
   95    92    93    1
   96    92    94    1
   97    94    95    1
   98    66    96    1
   99    92    96    1
  100    96    97    1
  101    96    98    1
  102    98    99    1
  103    85   100    1
  104    98   100    1
  105    98   101    1
  106   101   102    1
  107   101   103    1
  108   101   104    1
  109   104   105    1
  110   106   107    1
  111    12   108    1
  112   106   108    1
  113   106   109    1
  114   109   110    1
  115   109   111    1
  116   111   112    1
  117   109   113    1
  118   113   114    1
  119   113   115    1
  120   115   116    1
  121    87   117    1
  122   113   117    1
  123   117   118    1
  124   117   119    1
  125   119   120    1
  126   106   121    1
  127   119   121    1
  128   119   122    1
  129   122   123    1
  130   122   124    1
  131   122   125    1
  132   125   126    1
  133   127   128    1
  134   127   129    1
  135   127   130    1
  136   127   131    1
  137   131   132    1
  138   131   133    1
  139   131   134    1
  140   134   135    1
  141   134   136    1
  142   134   137    1
  143   137   138    1
  144   137   139    1
  145   137   140    1
  146   140   141    1
  147   140   142    1
  148   140   143    1
  149   143   144    1
  150   143   145    1
  151   143   146    1
  152   146   147    1
  153   146   148    1
  154   146   149    1
  155   149   150    1
  156   149   151    1
  157   149   152    1
@<TRIPOS>SUBSTRUCTURE
       1 MOL1            1 RESIDUE      1      MOL     
       2 MOL1          152 RESIDUE      1      MOL     
@<SCITEGIC>MOL_PROPERTY
VM2 Rank
SciTegic.value.IntegerValue
6

@<SCITEGIC>MOL_PROPERTY
Conf_Id
SciTegic.value.IntegerValue
24565

@<SCITEGIC>MOL_PROPERTY
Probability
SciTegic.value.DoubleValue
1.29

@<SCITEGIC>MOL_PROPERTY
Sum Probability
SciTegic.value.DoubleValue
15.95

@<SCITEGIC>MOL_PROPERTY
Delta G
SciTegic.value.DoubleValue
0.781

@<SCITEGIC>MOL_PROPERTY
G
SciTegic.value.DoubleValue
566.421

@<SCITEGIC>MOL_PROPERTY
E
SciTegic.value.DoubleValue
362.752

@<SCITEGIC>MOL_PROPERTY
-TS
SciTegic.value.DoubleValue
203.669

@<SCITEGIC>MOL_PROPERTY
U+W
SciTegic.value.DoubleValue
228.616

@<SCITEGIC>MOL_PROPERTY
U
SciTegic.value.DoubleValue
298.109

@<SCITEGIC>MOL_PROPERTY
W
SciTegic.value.DoubleValue
-69.493

@<SCITEGIC>MOL_PROPERTY
W(PB)
SciTegic.value.DoubleValue
-75.608

@<SCITEGIC>MOL_PROPERTY
W(SA)
SciTegic.value.DoubleValue
6.115

@<SCITEGIC>MOL_PROPERTY
Valence
SciTegic.value.DoubleValue
146.800

@<SCITEGIC>MOL_PROPERTY
Coulomb
SciTegic.value.DoubleValue
175.751

@<SCITEGIC>MOL_PROPERTY
VdW
SciTegic.value.DoubleValue
-24.442

@<SCITEGIC>MOL_PROPERTY
VdW6
SciTegic.value.DoubleValue
-177.986

@<SCITEGIC>MOL_PROPERTY
VdW12
SciTegic.value.DoubleValue
153.544

@<SCITEGIC>MOL_PROPERTY
Bond
SciTegic.value.DoubleValue
4.394

@<SCITEGIC>MOL_PROPERTY
Angle
SciTegic.value.DoubleValue
10.196

@<SCITEGIC>MOL_PROPERTY
Pdih
SciTegic.value.DoubleValue
132.210

@<SCITEGIC>MOL_PROPERTY
Idih
SciTegic.value.DoubleValue
0.000

@<SCITEGIC>MOL_PROPERTY
Tether
SciTegic.value.DoubleValue
0.000

@<TRIPOS>MOLECULE
CD_guest-s14_vm2_rndm.mol2 : vm2 host+ligand conformer 7
         152         157           2
SMALL
USER_CHARGES
 
@<TRIPOS>ATOM
       1    C1      16.146812   15.004528   21.520374 C.3        1 MOL1         0.2972
       2    H1      15.060804   14.846609   21.521997 H          1 MOL1         0.0751
       3    O1      16.489077   16.402859   21.424019 O.3        1 MOL1        -0.3740
       4    C2      16.767036   14.438944   22.821540 C.3        1 MOL1         0.1003
       5    H2      16.579244   13.357452   22.837029 H          1 MOL1         0.0783
       6    O2      16.168554   15.039845   23.980723 O.3        1 MOL1        -0.5519
       7    H3      15.806125   15.918038   23.702605 H          1 MOL1         0.3769
       8    C3      18.296057   14.659923   22.828105 C.3        1 MOL1         0.1053
       9    H4      18.468660   15.739070   22.899481 H          1 MOL1         0.0783
      10    O3      18.875274   14.006553   23.961843 O.3        1 MOL1        -0.5519
      11    H5      18.279680   14.228005   24.712186 H          1 MOL1         0.3769
      12    C4      18.957511   14.138969   21.527396 C.3        1 MOL1         0.1018
      13    H6      19.026132   13.044957   21.592728 H          1 MOL1         0.0783
      14    C5      18.183396   14.548655   20.240887 C.3        1 MOL1         0.1043
      15    H7      18.361758   15.616518   20.057776 H          1 MOL1         0.0783
      16    O4      16.762102   14.315677   20.412469 O.3        1 MOL1        -0.3740
      17    C6      18.631270   13.778623   18.978782 C.3        1 MOL1         0.0138
      18    H8      19.676219   14.028378   18.755774 H          1 MOL1         0.0794
      19    H9      18.027420   14.116923   18.126040 H          1 MOL1         0.0794
      20    O5      18.489147   12.366658   19.158460 O.3        1 MOL1        -0.5486
      21    H10     17.543876   12.210851   19.378868 H          1 MOL1         0.3769
      22    C7      14.907074   20.175742   20.698651 C.3        1 MOL1         0.2972
      23    H11     14.278103   21.025482   20.403323 H          1 MOL1         0.0751
      24    O6      16.249735   20.600184   21.011784 O.3        1 MOL1        -0.3740
      25    C8      14.295184   19.423246   21.912516 C.3        1 MOL1         0.1003
      26    H12     13.312541   19.049874   21.596099 H          1 MOL1         0.0783
      27    O7      14.116823   20.282007   23.048676 O.3        1 MOL1        -0.5519
      28    H13     15.016605   20.594516   23.320529 H          1 MOL1         0.3769
      29    C9      15.166967   18.201847   22.289494 C.3        1 MOL1         0.1053
      30    H14     16.136014   18.571855   22.652558 H          1 MOL1         0.0783
      31    O8      14.518558   17.448849   23.318934 O.3        1 MOL1        -0.5519
      32    H15     14.182926   18.119411   23.955336 H          1 MOL1         0.3769
      33    C10     15.422739   17.297929   21.057904 C.3        1 MOL1         0.1018
      34    H16     14.499141   16.760914   20.803839 H          1 MOL1         0.0783
      35    C11     15.890322   18.106410   19.819269 C.3        1 MOL1         0.1043
      36    H17     16.913026   18.457218   19.993943 H          1 MOL1         0.0783
      37    O9      14.995626   19.229017   19.611660 O.3        1 MOL1        -0.3740
      38    C12     15.886699   17.263280   18.527468 C.3        1 MOL1         0.0138
      39    H18     14.856243   16.968742   18.287903 H          1 MOL1         0.0794
      40    H19     16.466607   16.346267   18.688776 H          1 MOL1         0.0794
      41    O10     16.458544   18.013692   17.454316 O.3        1 MOL1        -0.5486
      42    H20     15.950534   18.853048   17.408820 H          1 MOL1         0.3769
      43    C13     18.547598   23.924746   21.909693 C.3        1 MOL1         0.2972
      44    H21     18.934136   24.911043   22.197127 H          1 MOL1         0.0751
      45    O11     19.572682   23.104920   21.312208 O.3        1 MOL1        -0.3740
      46    C14     17.963574   23.193424   23.146971 C.3        1 MOL1         0.1003
      47    H22     17.146288   23.815198   23.535107 H          1 MOL1         0.0783
      48    O12     18.949704   23.013451   24.176299 O.3        1 MOL1        -0.5519
      49    H23     19.714651   23.598390   23.955764 H          1 MOL1         0.3769
      50    C15     17.378563   21.821349   22.746652 C.3        1 MOL1         0.1053
      51    H24     18.219505   21.186728   22.450506 H          1 MOL1         0.0783
      52    O13     16.719227   21.244739   23.877494 O.3        1 MOL1        -0.5519
      53    H25     17.340363   21.393828   24.625809 H          1 MOL1         0.3769
      54    C16     16.402810   21.930898   21.546838 C.3        1 MOL1         0.1018
      55    H26     15.449842   22.340969   21.906667 H          1 MOL1         0.0783
      56    C17     16.962418   22.823791   20.402930 C.3        1 MOL1         0.1043
      57    H27     17.769760   22.274159   19.901208 H          1 MOL1         0.0783
      58    O14     17.482002   24.064062   20.945870 O.3        1 MOL1        -0.3740
      59    C18     15.910536   23.182388   19.329772 C.3        1 MOL1         0.0138
      60    H28     15.595779   22.264297   18.816250 H          1 MOL1         0.0794
      61    H29     16.379685   23.831303   18.578120 H          1 MOL1         0.0794
      62    O15     14.778174   23.834594   19.911483 O.3        1 MOL1        -0.5486
      63    H30     15.124087   24.632780   20.369425 H          1 MOL1         0.3769
      64    C19     23.650584   22.898629   20.846724 C.3        1 MOL1         0.2972
      65    H31     24.718301   23.018969   20.621922 H          1 MOL1         0.0751
      66    O16     23.318024   21.525003   21.140057 O.3        1 MOL1        -0.3740
      67    C20     23.215743   23.801249   22.029988 C.3        1 MOL1         0.1003
      68    H32     23.354495   24.841647   21.708077 H          1 MOL1         0.0783
      69    O17     24.009676   23.573053   23.203270 O.3        1 MOL1        -0.5519
      70    H33     23.861042   22.632526   23.476516 H          1 MOL1         0.3769
      71    C21     21.712778   23.596089   22.339117 C.3        1 MOL1         0.1053
      72    H34     21.581862   22.575260   22.725351 H          1 MOL1         0.0783
      73    O18     21.309395   24.545052   23.332467 O.3        1 MOL1        -0.5519
      74    H35     22.056439   24.576133   23.972781 H          1 MOL1         0.3769
      75    C22     20.839472   23.744982   21.060898 C.3        1 MOL1         0.1018
      76    H36     20.712122   24.809620   20.823069 H          1 MOL1         0.0783
      77    C23     21.438607   23.030216   19.818490 C.3        1 MOL1         0.1043
      78    H37     21.278971   21.950794   19.926468 H          1 MOL1         0.0783
      79    O19     22.856577   23.308976   19.714306 O.3        1 MOL1        -0.3740
      80    C24     20.765960   23.495942   18.508368 C.3        1 MOL1         0.0138
      81    H38     20.998602   24.555875   18.339358 H          1 MOL1         0.0794
      82    H39     19.676139   23.407516   18.611277 H          1 MOL1         0.0794
      83    O20     21.217534   22.701827   17.408026 O.3        1 MOL1        -0.5486
      84    H40     22.199600   22.751984   17.426887 H          1 MOL1         0.3769
      85    C25     24.842782   17.817000   22.100862 C.3        1 MOL1         0.2972
      86    H41     25.451708   16.953538   22.397656 H          1 MOL1         0.0751
      87    O21     23.584062   17.408979   21.526789 O.3        1 MOL1        -0.3740
      88    C26     24.564798   18.726641   23.324344 C.3        1 MOL1         0.1003
      89    H42     25.537329   19.077840   23.693166 H          1 MOL1         0.0783
      90    O22     23.895922   18.010577   24.374147 O.3        1 MOL1        -0.5519
      91    H43     23.990643   17.047831   24.174953 H          1 MOL1         0.3769
      92    C27     23.731569   19.961960   22.911453 C.3        1 MOL1         0.1053
      93    H44     22.733810   19.616514   22.617365 H          1 MOL1         0.0783
      94    O23     23.618706   20.840718   24.033815 O.3        1 MOL1        -0.5519
      95    H45     23.390178   20.248511   24.785689 H          1 MOL1         0.3769
      96    C28     24.357322   20.701141   21.701020 C.3        1 MOL1         0.1018
      97    H46     25.212021   21.295357   22.050858 H          1 MOL1         0.0783
      98    C29     24.805981   19.730071   20.571748 C.3        1 MOL1         0.1043
      99    H47     23.906022   19.357278   20.065247 H          1 MOL1         0.0783
     100    O24     25.546686   18.613135   21.124294 O.3        1 MOL1        -0.3740
     101    C30     25.694248   20.404801   19.502978 C.3        1 MOL1         0.0138
     102    H48     25.109808   21.179777   18.989432 H          1 MOL1         0.0794
     103    H49     25.973841   19.654903   18.750903 H          1 MOL1         0.0794
     104    O25     26.865017   20.979104   20.091032 O.3        1 MOL1        -0.5486
     105    H50     27.329271   20.246064   20.553358 H          1 MOL1         0.3769
     106    C31     21.351437   13.911556   21.069928 C.3        1 MOL1         0.2972
     107    H51     21.014938   12.897225   20.819146 H          1 MOL1         0.0751
     108    O26     20.256017   14.757645   21.467422 O.3        1 MOL1        -0.3740
     109    C32     22.364445   13.880916   22.241835 C.3        1 MOL1         0.1003
     110    H52     23.210716   13.256813   21.926508 H          1 MOL1         0.0783
     111    O27     21.770262   13.309516   23.418968 O.3        1 MOL1        -0.5519
     112    H53     20.864911   13.700069   23.515008 H          1 MOL1         0.3769
     113    C33     22.906442   15.300233   22.548485 C.3        1 MOL1         0.1053
     114    H54     22.079536   15.899001   22.954324 H          1 MOL1         0.0783
     115    O28     23.948567   15.191214   23.523886 O.3        1 MOL1        -0.5519
     116    H55     23.621147   14.522679   24.168174 H          1 MOL1         0.3769
     117    C34     23.422361   16.001539   21.259760 C.3        1 MOL1         0.1018
     118    H56     24.367533   15.545111   20.936639 H          1 MOL1         0.0783
     119    C35     22.396783   15.897879   20.102009 C.3        1 MOL1         0.1043
     120    H57     21.524074   16.512442   20.349787 H          1 MOL1         0.0783
     121    O29     22.003934   14.515773   19.933525 O.3        1 MOL1        -0.3740
     122    C36     22.970586   16.392919   18.758087 C.3        1 MOL1         0.0138
     123    H58     23.765767   15.711288   18.427762 H          1 MOL1         0.0794
     124    H59     23.419038   17.384836   18.897754 H          1 MOL1         0.0794
     125    O30     21.929928   16.467870   17.781422 O.3        1 MOL1        -0.5486
     126    H60     21.543824   15.567497   17.722420 H          1 MOL1         0.3769
     127    C1      20.156005   17.779853   24.694439 C.3        1 MOL1        -0.2400
     128    H1      19.842630   18.126975   25.687197 H          1 MOL1         0.0971
     129    H2      19.754716   16.769665   24.548821 H          1 MOL1         0.0971
     130    H3      21.250788   17.713860   24.692851 H          1 MOL1         0.0971
     131    C2      19.659068   18.746257   23.599393 C.3        1 MOL1        -0.1385
     132    H4      20.063133   19.750590   23.791939 H          1 MOL1         0.0960
     133    H5      18.564386   18.828711   23.653993 H          1 MOL1         0.0960
     134    C3      20.076492   18.277862   22.188885 C.3        1 MOL1        -0.1409
     135    H6      21.163765   18.153897   22.147593 H          1 MOL1         0.0960
     136    H7      19.641307   17.295076   21.981181 H          1 MOL1         0.0960
     137    C4      19.622713   19.269571   21.101457 C.3        1 MOL1        -0.1409
     138    H8      20.072454   20.254164   21.290953 H          1 MOL1         0.0960
     139    H9      18.536872   19.393040   21.168273 H          1 MOL1         0.0960
     140    C5      19.993140   18.796600   19.681258 C.3        1 MOL1        -0.1409
     141    H10     21.086742   18.735098   19.593600 H          1 MOL1         0.0960
     142    H11     19.597242   17.787388   19.501878 H          1 MOL1         0.0960
     143    C6      19.445716   19.758831   18.608702 C.3        1 MOL1        -0.1450
     144    H12     19.776515   20.776978   18.834709 H          1 MOL1         0.0960
     145    H13     18.348497   19.772413   18.631734 H          1 MOL1         0.0960
     146    C7      19.929459   19.369507   17.203337 C.3        1 MOL1         0.0172
     147    H14     21.004387   19.169436   17.228272 H          1 MOL1         0.0934
     148    H15     19.416724   18.463267   16.868664 H          1 MOL1         0.0934
     149    N1      19.689938   20.467690   16.189286 N.4        1 MOL1        -0.5956
     150    H16     20.045379   20.216125   15.261723 H          1 MOL1         0.3624
     151    H17     20.169170   21.338897   16.473962 H          1 MOL1         0.3624
     152    H18     18.693988   20.683995   16.088973 H          1 MOL1         0.3624
@<TRIPOS>BOND
    1     1     2    1
    2     1     3    1
    3     1     4    1
    4     4     5    1
    5     4     6    1
    6     6     7    1
    7     4     8    1
    8     8     9    1
    9     8    10    1
   10    10    11    1
   11     8    12    1
   12    12    13    1
   13    12    14    1
   14    14    15    1
   15     1    16    1
   16    14    16    1
   17    14    17    1
   18    17    18    1
   19    17    19    1
   20    17    20    1
   21    20    21    1
   22    22    23    1
   23    22    24    1
   24    22    25    1
   25    25    26    1
   26    25    27    1
   27    27    28    1
   28    25    29    1
   29    29    30    1
   30    29    31    1
   31    31    32    1
   32     3    33    1
   33    29    33    1
   34    33    34    1
   35    33    35    1
   36    35    36    1
   37    22    37    1
   38    35    37    1
   39    35    38    1
   40    38    39    1
   41    38    40    1
   42    38    41    1
   43    41    42    1
   44    43    44    1
   45    43    45    1
   46    43    46    1
   47    46    47    1
   48    46    48    1
   49    48    49    1
   50    46    50    1
   51    50    51    1
   52    50    52    1
   53    52    53    1
   54    24    54    1
   55    50    54    1
   56    54    55    1
   57    54    56    1
   58    56    57    1
   59    43    58    1
   60    56    58    1
   61    56    59    1
   62    59    60    1
   63    59    61    1
   64    59    62    1
   65    62    63    1
   66    64    65    1
   67    64    66    1
   68    64    67    1
   69    67    68    1
   70    67    69    1
   71    69    70    1
   72    67    71    1
   73    71    72    1
   74    71    73    1
   75    73    74    1
   76    45    75    1
   77    71    75    1
   78    75    76    1
   79    75    77    1
   80    77    78    1
   81    64    79    1
   82    77    79    1
   83    77    80    1
   84    80    81    1
   85    80    82    1
   86    80    83    1
   87    83    84    1
   88    85    86    1
   89    85    87    1
   90    85    88    1
   91    88    89    1
   92    88    90    1
   93    90    91    1
   94    88    92    1
   95    92    93    1
   96    92    94    1
   97    94    95    1
   98    66    96    1
   99    92    96    1
  100    96    97    1
  101    96    98    1
  102    98    99    1
  103    85   100    1
  104    98   100    1
  105    98   101    1
  106   101   102    1
  107   101   103    1
  108   101   104    1
  109   104   105    1
  110   106   107    1
  111    12   108    1
  112   106   108    1
  113   106   109    1
  114   109   110    1
  115   109   111    1
  116   111   112    1
  117   109   113    1
  118   113   114    1
  119   113   115    1
  120   115   116    1
  121    87   117    1
  122   113   117    1
  123   117   118    1
  124   117   119    1
  125   119   120    1
  126   106   121    1
  127   119   121    1
  128   119   122    1
  129   122   123    1
  130   122   124    1
  131   122   125    1
  132   125   126    1
  133   127   128    1
  134   127   129    1
  135   127   130    1
  136   127   131    1
  137   131   132    1
  138   131   133    1
  139   131   134    1
  140   134   135    1
  141   134   136    1
  142   134   137    1
  143   137   138    1
  144   137   139    1
  145   137   140    1
  146   140   141    1
  147   140   142    1
  148   140   143    1
  149   143   144    1
  150   143   145    1
  151   143   146    1
  152   146   147    1
  153   146   148    1
  154   146   149    1
  155   149   150    1
  156   149   151    1
  157   149   152    1
@<TRIPOS>SUBSTRUCTURE
       1 MOL1            1 RESIDUE      1      MOL     
       2 MOL1          152 RESIDUE      1      MOL     
@<SCITEGIC>MOL_PROPERTY
VM2 Rank
SciTegic.value.IntegerValue
7

@<SCITEGIC>MOL_PROPERTY
Conf_Id
SciTegic.value.IntegerValue
26702

@<SCITEGIC>MOL_PROPERTY
Probability
SciTegic.value.DoubleValue
1.02

@<SCITEGIC>MOL_PROPERTY
Sum Probability
SciTegic.value.DoubleValue
16.97

@<SCITEGIC>MOL_PROPERTY
Delta G
SciTegic.value.DoubleValue
0.921

@<SCITEGIC>MOL_PROPERTY
G
SciTegic.value.DoubleValue
566.561

@<SCITEGIC>MOL_PROPERTY
E
SciTegic.value.DoubleValue
362.842

@<SCITEGIC>MOL_PROPERTY
-TS
SciTegic.value.DoubleValue
203.719

@<SCITEGIC>MOL_PROPERTY
U+W
SciTegic.value.DoubleValue
228.706

@<SCITEGIC>MOL_PROPERTY
U
SciTegic.value.DoubleValue
296.811

@<SCITEGIC>MOL_PROPERTY
W
SciTegic.value.DoubleValue
-68.106

@<SCITEGIC>MOL_PROPERTY
W(PB)
SciTegic.value.DoubleValue
-74.156

@<SCITEGIC>MOL_PROPERTY
W(SA)
SciTegic.value.DoubleValue
6.051

@<SCITEGIC>MOL_PROPERTY
Valence
SciTegic.value.DoubleValue
146.849

@<SCITEGIC>MOL_PROPERTY
Coulomb
SciTegic.value.DoubleValue
177.305

@<SCITEGIC>MOL_PROPERTY
VdW
SciTegic.value.DoubleValue
-27.342

@<SCITEGIC>MOL_PROPERTY
VdW6
SciTegic.value.DoubleValue
-180.024

@<SCITEGIC>MOL_PROPERTY
VdW12
SciTegic.value.DoubleValue
152.682

@<SCITEGIC>MOL_PROPERTY
Bond
SciTegic.value.DoubleValue
4.324

@<SCITEGIC>MOL_PROPERTY
Angle
SciTegic.value.DoubleValue
9.436

@<SCITEGIC>MOL_PROPERTY
Pdih
SciTegic.value.DoubleValue
133.089

@<SCITEGIC>MOL_PROPERTY
Idih
SciTegic.value.DoubleValue
0.000

@<SCITEGIC>MOL_PROPERTY
Tether
SciTegic.value.DoubleValue
0.000

@<TRIPOS>MOLECULE
CD_guest-s14_vm2_rndm.mol2 : vm2 host+ligand conformer 8
         152         157           2
SMALL
USER_CHARGES
 
@<TRIPOS>ATOM
       1    C1      16.181404   14.952750   20.881011 C.3        1 MOL1         0.2972
       2    H1      15.128620   14.790819   20.616269 H          1 MOL1         0.0751
       3    O1      16.463093   16.336950   21.172234 O.3        1 MOL1        -0.3740
       4    C2      16.571977   14.120771   22.127253 C.3        1 MOL1         0.1003
       5    H2      16.444577   13.060451   21.873225 H          1 MOL1         0.0783
       6    O2      15.735605   14.441525   23.249967 O.3        1 MOL1        -0.5519
       7    H3      15.643533   15.427728   23.281869 H          1 MOL1         0.3769
       8    C3      18.060434   14.357477   22.474660 C.3        1 MOL1         0.1053
       9    H4      18.166781   15.403856   22.785172 H          1 MOL1         0.0783
      10    O3      18.451630   13.494888   23.546734 O.3        1 MOL1        -0.5519
      11    H5      17.709241   13.535680   24.190339 H          1 MOL1         0.3769
      12    C4      18.975641   14.124578   21.246051 C.3        1 MOL1         0.1018
      13    H6      19.053300   13.044376   21.064906 H          1 MOL1         0.0783
      14    C5      18.447957   14.824398   19.962215 C.3        1 MOL1         0.1043
      15    H7      18.601912   15.906713   20.052090 H          1 MOL1         0.0783
      16    O4      17.038548   14.532292   19.799708 O.3        1 MOL1        -0.3740
      17    C6      19.164908   14.341393   18.685711 C.3        1 MOL1         0.0138
      18    H8      18.985622   13.266306   18.551315 H          1 MOL1         0.0794
      19    H9      20.244670   14.490088   18.798137 H          1 MOL1         0.0794
      20    O5      18.692830   15.075348   17.554876 O.3        1 MOL1        -0.5486
      21    H10     17.714855   14.981818   17.560331 H          1 MOL1         0.3769
      22    C7      14.836662   20.136800   21.036835 C.3        1 MOL1         0.2972
      23    H11     14.193640   21.021545   20.943048 H          1 MOL1         0.0751
      24    O6      16.234595   20.501841   21.048549 O.3        1 MOL1        -0.3740
      25    C8      14.487343   19.324706   22.314353 C.3        1 MOL1         0.1003
      26    H12     13.454732   18.970714   22.197685 H          1 MOL1         0.0783
      27    O7      14.566591   20.120183   23.505871 O.3        1 MOL1        -0.5519
      28    H13     15.515209   20.384184   23.611226 H          1 MOL1         0.3769
      29    C9      15.404066   18.084175   22.424396 C.3        1 MOL1         0.1053
      30    H14     16.435360   18.431287   22.566398 H          1 MOL1         0.0783
      31    O8      15.003498   17.288693   23.544400 O.3        1 MOL1        -0.5519
      32    H15     14.834765   17.931949   24.268544 H          1 MOL1         0.3769
      33    C10     15.344200   17.239449   21.127924 C.3        1 MOL1         0.1018
      34    H16     14.384648   16.705988   21.109000 H          1 MOL1         0.0783
      35    C11     15.494942   18.100507   19.842317 C.3        1 MOL1         0.1043
      36    H17     16.539630   18.429567   19.766504 H          1 MOL1         0.0783
      37    O9      14.624175   19.257479   19.911940 O.3        1 MOL1        -0.3740
      38    C12     15.149895   17.331142   18.547837 C.3        1 MOL1         0.0138
      39    H18     15.862179   16.505923   18.420324 H          1 MOL1         0.0794
      40    H19     15.276692   18.006425   17.691136 H          1 MOL1         0.0794
      41    O10     13.811879   16.826085   18.588318 O.3        1 MOL1        -0.5486
      42    H20     13.228527   17.604650   18.729459 H          1 MOL1         0.3769
      43    C13     18.741444   23.752556   21.801350 C.3        1 MOL1         0.2972
      44    H21     19.142628   24.725631   22.110229 H          1 MOL1         0.0751
      45    O11     19.680235   23.026781   20.979496 O.3        1 MOL1        -0.3740
      46    C14     18.376752   22.892274   23.042666 C.3        1 MOL1         0.1003
      47    H22     17.626882   23.454852   23.614029 H          1 MOL1         0.0783
      48    O12     19.512352   22.638409   23.885413 O.3        1 MOL1        -0.5519
      49    H23     20.140961   23.387883   23.757700 H          1 MOL1         0.3769
      50    C15     17.744870   21.550831   22.610467 C.3        1 MOL1         0.1053
      51    H24     18.510379   20.975535   22.077572 H          1 MOL1         0.0783
      52    O13     17.328211   20.842273   23.781100 O.3        1 MOL1        -0.5519
      53    H25     18.078891   20.951859   24.407058 H          1 MOL1         0.3769
      54    C16     16.555753   21.775290   21.645133 C.3        1 MOL1         0.1018
      55    H26     15.712142   22.184779   22.216493 H          1 MOL1         0.0783
      56    C17     16.927310   22.747776   20.491556 C.3        1 MOL1         0.1043
      57    H27     17.641633   22.242849   19.827494 H          1 MOL1         0.0783
      58    O14     17.532072   23.946960   21.035848 O.3        1 MOL1        -0.3740
      59    C18     15.713628   23.178607   19.637735 C.3        1 MOL1         0.0138
      60    H28     15.307794   22.297524   19.123008 H          1 MOL1         0.0794
      61    H29     16.056434   23.879145   18.864487 H          1 MOL1         0.0794
      62    O15     14.701376   23.786572   20.445636 O.3        1 MOL1        -0.5486
      63    H30     15.128370   24.550719   20.893159 H          1 MOL1         0.3769
      64    C19     23.753835   22.811039   20.473884 C.3        1 MOL1         0.2972
      65    H31     24.819919   22.902193   20.229026 H          1 MOL1         0.0751
      66    O16     23.412427   21.461060   20.860358 O.3        1 MOL1        -0.3740
      67    C20     23.339935   23.814443   21.580297 C.3        1 MOL1         0.1003
      68    H32     23.447057   24.821057   21.155107 H          1 MOL1         0.0783
      69    O17     24.172902   23.722695   22.744813 O.3        1 MOL1        -0.5519
      70    H33     23.977582   22.848042   23.165594 H          1 MOL1         0.3769
      71    C21     21.851125   23.612417   21.947816 C.3        1 MOL1         0.1053
      72    H34     21.743334   22.612258   22.388222 H          1 MOL1         0.0783
      73    O18     21.482096   24.607780   22.909838 O.3        1 MOL1        -0.5519
      74    H35     22.272867   24.708006   23.487786 H          1 MOL1         0.3769
      75    C22     20.936467   23.680166   20.688205 C.3        1 MOL1         0.1018
      76    H36     20.776814   24.730647   20.411458 H          1 MOL1         0.0783
      77    C23     21.524888   22.917714   19.463192 C.3        1 MOL1         0.1043
      78    H37     21.349538   21.844827   19.608856 H          1 MOL1         0.0783
      79    O19     22.950753   23.150840   19.325030 O.3        1 MOL1        -0.3740
      80    C24     20.850893   23.317598   18.132370 C.3        1 MOL1         0.0138
      81    H38     19.772083   23.124638   18.205335 H          1 MOL1         0.0794
      82    H39     21.246855   22.680168   17.330556 H          1 MOL1         0.0794
      83    O20     21.087014   24.696193   17.831334 O.3        1 MOL1        -0.5486
      84    H40     22.062598   24.816967   17.855467 H          1 MOL1         0.3769
      85    C25     24.719793   17.916177   22.500787 C.3        1 MOL1         0.2972
      86    H41     25.267710   17.096004   22.982274 H          1 MOL1         0.0751
      87    O21     23.514120   17.446456   21.863485 O.3        1 MOL1        -0.3740
      88    C26     24.347229   18.991897   23.549259 C.3        1 MOL1         0.1003
      89    H42     25.287308   19.364030   23.976966 H          1 MOL1         0.0783
      90    O22     23.536706   18.442454   24.601560 O.3        1 MOL1        -0.5519
      91    H43     23.590497   17.458879   24.525277 H          1 MOL1         0.3769
      92    C27     23.616886   20.181313   22.885561 C.3        1 MOL1         0.1053
      93    H44     22.636957   19.830865   22.544927 H          1 MOL1         0.0783
      94    O23     23.442410   21.204983   23.867557 O.3        1 MOL1        -0.5519
      95    H45     23.104818   20.729822   24.660314 H          1 MOL1         0.3769
      96    C28     24.373712   20.723747   21.643955 C.3        1 MOL1         0.1018
      97    H46     25.208909   21.353618   21.977372 H          1 MOL1         0.0783
      98    C29     24.901267   19.588832   20.721240 C.3        1 MOL1         0.1043
      99    H47     24.045050   19.163010   20.182207 H          1 MOL1         0.0783
     100    O24     25.544903   18.550735   21.501439 O.3        1 MOL1        -0.3740
     101    C30     25.913990   20.085088   19.665677 C.3        1 MOL1         0.0138
     102    H48     25.413372   20.798478   18.997551 H          1 MOL1         0.0794
     103    H49     26.232801   19.231317   19.052819 H          1 MOL1         0.0794
     104    O25     27.046128   20.701704   20.285507 O.3        1 MOL1        -0.5486
     105    H50     27.428160   20.028942   20.892264 H          1 MOL1         0.3769
     106    C31     21.402774   13.863461   21.478758 C.3        1 MOL1         0.2972
     107    H51     21.126760   12.813536   21.319466 H          1 MOL1         0.0751
     108    O26     20.245317   14.714233   21.583523 O.3        1 MOL1        -0.3740
     109    C32     22.212816   14.007154   22.791167 C.3        1 MOL1         0.1003
     110    H52     23.110013   13.382100   22.693827 H          1 MOL1         0.0783
     111    O27     21.445666   13.556746   23.919400 O.3        1 MOL1        -0.5519
     112    H53     20.492631   13.737295   23.720470 H          1 MOL1         0.3769
     113    C33     22.672544   15.469748   23.001292 C.3        1 MOL1         0.1053
     114    H54     21.779298   16.081538   23.180283 H          1 MOL1         0.0783
     115    O28     23.533550   15.524600   24.143574 O.3        1 MOL1        -0.5519
     116    H55     23.108106   14.932387   24.804836 H          1 MOL1         0.3769
     117    C34     23.390939   16.016322   21.737212 C.3        1 MOL1         0.1018
     118    H56     24.374414   15.538335   21.633853 H          1 MOL1         0.0783
     119    C35     22.576231   15.747584   20.445550 C.3        1 MOL1         0.1043
     120    H57     21.674558   16.373115   20.454037 H          1 MOL1         0.0783
     121    O29     22.222245   14.343365   20.391981 O.3        1 MOL1        -0.3740
     122    C36     23.385966   16.074697   19.173273 C.3        1 MOL1         0.0138
     123    H58     24.213830   15.359735   19.075293 H          1 MOL1         0.0794
     124    H59     23.823066   17.076501   19.269062 H          1 MOL1         0.0794
     125    O30     22.540602   16.029001   18.022547 O.3        1 MOL1        -0.5486
     126    H60     22.128895   15.138201   18.009764 H          1 MOL1         0.3769
     127    C1      19.868374   18.905383   19.234442 C.3        1 MOL1        -0.2400
     128    H1      18.825049   19.237418   19.157435 H          1 MOL1         0.0971
     129    H2      20.457189   19.465638   18.496991 H          1 MOL1         0.0971
     130    H3      19.913138   17.842631   18.959989 H          1 MOL1         0.0971
     131    C2      20.418645   19.135732   20.656861 C.3        1 MOL1        -0.1385
     132    H4      20.392527   20.207879   20.892629 H          1 MOL1         0.0960
     133    H5      21.473342   18.832140   20.691237 H          1 MOL1         0.0960
     134    C3      19.612058   18.353727   21.715426 C.3        1 MOL1        -0.1409
     135    H6      18.552923   18.635811   21.653503 H          1 MOL1         0.0960
     136    H7      19.666279   17.281250   21.498985 H          1 MOL1         0.0960
     137    C4      20.138175   18.611976   23.142863 C.3        1 MOL1        -0.1409
     138    H8      20.098556   19.687053   23.366276 H          1 MOL1         0.0960
     139    H9      21.191651   18.315822   23.199121 H          1 MOL1         0.0960
     140    C5      19.344194   17.826902   24.206906 C.3        1 MOL1        -0.1409
     141    H10     18.277270   18.081051   24.139409 H          1 MOL1         0.0960
     142    H11     19.434265   16.751339   24.008037 H          1 MOL1         0.0960
     143    C6      19.860353   18.122187   25.630199 C.3        1 MOL1        -0.1450
     144    H12     19.767954   19.195794   25.842007 H          1 MOL1         0.0960
     145    H13     20.928147   17.872208   25.694344 H          1 MOL1         0.0960
     146    C7      19.080333   17.318536   26.684123 C.3        1 MOL1         0.0172
     147    H14     18.019586   17.579272   26.634868 H          1 MOL1         0.0934
     148    H15     19.182259   16.249098   26.480201 H          1 MOL1         0.0934
     149    N1      19.561667   17.573898   28.097492 N.4        1 MOL1        -0.5956
     150    H16     19.465244   18.560238   28.359308 H          1 MOL1         0.3624
     151    H17     20.549643   17.325610   28.212386 H          1 MOL1         0.3624
     152    H18     19.032083   17.027179   28.784801 H          1 MOL1         0.3624
@<TRIPOS>BOND
    1     1     2    1
    2     1     3    1
    3     1     4    1
    4     4     5    1
    5     4     6    1
    6     6     7    1
    7     4     8    1
    8     8     9    1
    9     8    10    1
   10    10    11    1
   11     8    12    1
   12    12    13    1
   13    12    14    1
   14    14    15    1
   15     1    16    1
   16    14    16    1
   17    14    17    1
   18    17    18    1
   19    17    19    1
   20    17    20    1
   21    20    21    1
   22    22    23    1
   23    22    24    1
   24    22    25    1
   25    25    26    1
   26    25    27    1
   27    27    28    1
   28    25    29    1
   29    29    30    1
   30    29    31    1
   31    31    32    1
   32     3    33    1
   33    29    33    1
   34    33    34    1
   35    33    35    1
   36    35    36    1
   37    22    37    1
   38    35    37    1
   39    35    38    1
   40    38    39    1
   41    38    40    1
   42    38    41    1
   43    41    42    1
   44    43    44    1
   45    43    45    1
   46    43    46    1
   47    46    47    1
   48    46    48    1
   49    48    49    1
   50    46    50    1
   51    50    51    1
   52    50    52    1
   53    52    53    1
   54    24    54    1
   55    50    54    1
   56    54    55    1
   57    54    56    1
   58    56    57    1
   59    43    58    1
   60    56    58    1
   61    56    59    1
   62    59    60    1
   63    59    61    1
   64    59    62    1
   65    62    63    1
   66    64    65    1
   67    64    66    1
   68    64    67    1
   69    67    68    1
   70    67    69    1
   71    69    70    1
   72    67    71    1
   73    71    72    1
   74    71    73    1
   75    73    74    1
   76    45    75    1
   77    71    75    1
   78    75    76    1
   79    75    77    1
   80    77    78    1
   81    64    79    1
   82    77    79    1
   83    77    80    1
   84    80    81    1
   85    80    82    1
   86    80    83    1
   87    83    84    1
   88    85    86    1
   89    85    87    1
   90    85    88    1
   91    88    89    1
   92    88    90    1
   93    90    91    1
   94    88    92    1
   95    92    93    1
   96    92    94    1
   97    94    95    1
   98    66    96    1
   99    92    96    1
  100    96    97    1
  101    96    98    1
  102    98    99    1
  103    85   100    1
  104    98   100    1
  105    98   101    1
  106   101   102    1
  107   101   103    1
  108   101   104    1
  109   104   105    1
  110   106   107    1
  111    12   108    1
  112   106   108    1
  113   106   109    1
  114   109   110    1
  115   109   111    1
  116   111   112    1
  117   109   113    1
  118   113   114    1
  119   113   115    1
  120   115   116    1
  121    87   117    1
  122   113   117    1
  123   117   118    1
  124   117   119    1
  125   119   120    1
  126   106   121    1
  127   119   121    1
  128   119   122    1
  129   122   123    1
  130   122   124    1
  131   122   125    1
  132   125   126    1
  133   127   128    1
  134   127   129    1
  135   127   130    1
  136   127   131    1
  137   131   132    1
  138   131   133    1
  139   131   134    1
  140   134   135    1
  141   134   136    1
  142   134   137    1
  143   137   138    1
  144   137   139    1
  145   137   140    1
  146   140   141    1
  147   140   142    1
  148   140   143    1
  149   143   144    1
  150   143   145    1
  151   143   146    1
  152   146   147    1
  153   146   148    1
  154   146   149    1
  155   149   150    1
  156   149   151    1
  157   149   152    1
@<TRIPOS>SUBSTRUCTURE
       1 MOL1            1 RESIDUE      1      MOL     
       2 MOL1          152 RESIDUE      1      MOL     
@<SCITEGIC>MOL_PROPERTY
VM2 Rank
SciTegic.value.IntegerValue
8

@<SCITEGIC>MOL_PROPERTY
Conf_Id
SciTegic.value.IntegerValue
14857

@<SCITEGIC>MOL_PROPERTY
Probability
SciTegic.value.DoubleValue
0.90

@<SCITEGIC>MOL_PROPERTY
Sum Probability
SciTegic.value.DoubleValue
17.88

@<SCITEGIC>MOL_PROPERTY
Delta G
SciTegic.value.DoubleValue
0.993

@<SCITEGIC>MOL_PROPERTY
G
SciTegic.value.DoubleValue
566.633

@<SCITEGIC>MOL_PROPERTY
E
SciTegic.value.DoubleValue
364.901

@<SCITEGIC>MOL_PROPERTY
-TS
SciTegic.value.DoubleValue
201.732

@<SCITEGIC>MOL_PROPERTY
U+W
SciTegic.value.DoubleValue
230.765

@<SCITEGIC>MOL_PROPERTY
U
SciTegic.value.DoubleValue
316.144

@<SCITEGIC>MOL_PROPERTY
W
SciTegic.value.DoubleValue
-85.379

@<SCITEGIC>MOL_PROPERTY
W(PB)
SciTegic.value.DoubleValue
-91.639

@<SCITEGIC>MOL_PROPERTY
W(SA)
SciTegic.value.DoubleValue
6.260

@<SCITEGIC>MOL_PROPERTY
Valence
SciTegic.value.DoubleValue
146.474

@<SCITEGIC>MOL_PROPERTY
Coulomb
SciTegic.value.DoubleValue
195.777

@<SCITEGIC>MOL_PROPERTY
VdW
SciTegic.value.DoubleValue
-26.107

@<SCITEGIC>MOL_PROPERTY
VdW6
SciTegic.value.DoubleValue
-177.889

@<SCITEGIC>MOL_PROPERTY
VdW12
SciTegic.value.DoubleValue
151.782

@<SCITEGIC>MOL_PROPERTY
Bond
SciTegic.value.DoubleValue
4.422

@<SCITEGIC>MOL_PROPERTY
Angle
SciTegic.value.DoubleValue
10.080

@<SCITEGIC>MOL_PROPERTY
Pdih
SciTegic.value.DoubleValue
131.971

@<SCITEGIC>MOL_PROPERTY
Idih
SciTegic.value.DoubleValue
0.000

@<SCITEGIC>MOL_PROPERTY
Tether
SciTegic.value.DoubleValue
0.000

