@<TRIPOS>MOLECULE
CD_guest-s11_vm2_rndm.mol2 : vm2 host+ligand conformer 1
         146         151           2
SMALL
USER_CHARGES
 
@<TRIPOS>ATOM
       1    C1      16.167831   14.988381   20.623944 C.3        1 MOL1         0.2972
       2    H1      15.107133   14.876520   20.364261 H          1 MOL1         0.0751
       3    O1      16.508450   16.363825   20.901050 O.3        1 MOL1        -0.3740
       4    C2      16.551592   14.100157   21.834756 C.3        1 MOL1         0.1003
       5    H2      16.422623   13.056131   21.520517 H          1 MOL1         0.0783
       6    O2      15.712893   14.344154   22.973077 O.3        1 MOL1        -0.5519
       7    H3      15.867182   15.282130   23.251332 H          1 MOL1         0.3769
       8    C3      18.041510   14.306053   22.199127 C.3        1 MOL1         0.1053
       9    H4      18.158288   15.331105   22.578524 H          1 MOL1         0.0783
      10    O3      18.401372   13.368318   23.219738 O.3        1 MOL1        -0.5519
      11    H5      17.625063   13.340028   23.824512 H          1 MOL1         0.3769
      12    C4      18.967069   14.142097   20.958865 C.3        1 MOL1         0.1018
      13    H6      19.123938   13.074593   20.753942 H          1 MOL1         0.0783
      14    C5      18.411262   14.816944   19.674239 C.3        1 MOL1         0.1043
      15    H7      18.578560   15.897394   19.747613 H          1 MOL1         0.0783
      16    O4      16.995274   14.546082   19.529218 O.3        1 MOL1        -0.3740
      17    C6      19.122350   14.310997   18.402394 C.3        1 MOL1         0.0138
      18    H8      18.911398   13.241471   18.269179 H          1 MOL1         0.0794
      19    H9      20.207747   14.425117   18.526054 H          1 MOL1         0.0794
      20    O5      18.679729   15.055857   17.265904 O.3        1 MOL1        -0.5486
      21    H10     17.698796   14.992550   17.264324 H          1 MOL1         0.3769
      22    C7      15.028453   20.094803   21.807015 C.3        1 MOL1         0.2972
      23    H11     14.425531   20.968286   22.085141 H          1 MOL1         0.0751
      24    O6      16.300240   20.481572   21.244734 O.3        1 MOL1        -0.3740
      25    C8      15.280693   19.200452   23.047147 C.3        1 MOL1         0.1003
      26    H12     14.299069   18.881436   23.421118 H          1 MOL1         0.0783
      27    O7      15.971043   19.919102   24.082530 O.3        1 MOL1        -0.5519
      28    H13     15.839065   20.881429   23.903980 H          1 MOL1         0.3769
      29    C9      16.085286   17.938779   22.660737 C.3        1 MOL1         0.1053
      30    H14     17.096693   18.259084   22.388431 H          1 MOL1         0.0783
      31    O8      16.153458   17.068146   23.792817 O.3        1 MOL1        -0.5519
      32    H15     16.390149   17.658371   24.543645 H          1 MOL1         0.3769
      33    C10     15.470413   17.201857   21.442425 C.3        1 MOL1         0.1018
      34    H16     14.602616   16.619698   21.780080 H          1 MOL1         0.0783
      35    C11     15.052923   18.168645   20.298525 C.3        1 MOL1         0.1043
      36    H17     15.964308   18.524575   19.800903 H          1 MOL1         0.0783
      37    O9      14.322879   19.299576   20.831877 O.3        1 MOL1        -0.3740
      38    C12     14.169199   17.498066   19.223355 C.3        1 MOL1         0.0138
      39    H18     14.748643   16.709708   18.724750 H          1 MOL1         0.0794
      40    H19     13.911482   18.245416   18.460984 H          1 MOL1         0.0794
      41    O10     12.981767   16.946739   19.799747 O.3        1 MOL1        -0.5486
      42    H20     12.522012   17.690682   20.248988 H          1 MOL1         0.3769
      43    C13     18.535367   23.982134   20.849310 C.3        1 MOL1         0.2972
      44    H21     18.896046   24.988203   20.598598 H          1 MOL1         0.0751
      45    O11     19.601088   23.131808   21.310671 O.3        1 MOL1        -0.3740
      46    C14     17.446588   24.036058   21.950881 C.3        1 MOL1         0.1003
      47    H22     16.614874   24.633603   21.555437 H          1 MOL1         0.0783
      48    O12     17.939077   24.657742   23.148642 O.3        1 MOL1        -0.5519
      49    H23     18.767030   24.182199   23.413480 H          1 MOL1         0.3769
      50    C15     16.908039   22.617044   22.260892 C.3        1 MOL1         0.1053
      51    H24     17.720093   22.036612   22.720606 H          1 MOL1         0.0783
      52    O13     15.817728   22.736359   23.181518 O.3        1 MOL1        -0.5519
      53    H25     16.098821   23.434876   23.815963 H          1 MOL1         0.3769
      54    C16     16.468422   21.884865   20.959420 C.3        1 MOL1         0.1018
      55    H26     15.537245   22.326777   20.580303 H          1 MOL1         0.0783
      56    C17     17.549955   21.978123   19.850575 C.3        1 MOL1         0.1043
      57    H27     18.409606   21.364614   20.145984 H          1 MOL1         0.0783
      58    O14     17.948604   23.361153   19.686451 O.3        1 MOL1        -0.3740
      59    C18     17.042142   21.471708   18.483547 C.3        1 MOL1         0.0138
      60    H28     16.216214   22.111043   18.144221 H          1 MOL1         0.0794
      61    H29     16.649603   20.453071   18.597760 H          1 MOL1         0.0794
      62    O15     18.108375   21.479884   17.529665 O.3        1 MOL1        -0.5486
      63    H30     18.463062   22.396995   17.534993 H          1 MOL1         0.3769
      64    C19     23.593460   22.888984   22.066011 C.3        1 MOL1         0.2972
      65    H31     24.664858   22.993717   22.280644 H          1 MOL1         0.0751
      66    O16     23.255639   21.550843   21.645442 O.3        1 MOL1        -0.3740
      67    C20     22.757903   23.241581   23.320883 C.3        1 MOL1         0.1003
      68    H32     22.938741   24.299553   23.551527 H          1 MOL1         0.0783
      69    O17     23.144621   22.439377   24.447804 O.3        1 MOL1        -0.5519
      70    H33     23.727175   21.716359   24.106515 H          1 MOL1         0.3769
      71    C21     21.251086   23.064079   23.031004 C.3        1 MOL1         0.1053
      72    H34     21.066848   21.991144   22.912294 H          1 MOL1         0.0783
      73    O18     20.488525   23.551971   24.138561 O.3        1 MOL1        -0.5519
      74    H35     20.936641   23.183832   24.932986 H          1 MOL1         0.3769
      75    C22     20.812786   23.785202   21.729325 C.3        1 MOL1         0.1018
      76    H36     20.650421   24.846903   21.958757 H          1 MOL1         0.0783
      77    C23     21.824180   23.638130   20.553996 C.3        1 MOL1         0.1043
      78    H37     21.699933   22.635138   20.124869 H          1 MOL1         0.0783
      79    O19     23.187962   23.796585   21.021400 O.3        1 MOL1        -0.3740
      80    C24     21.595609   24.654558   19.413378 C.3        1 MOL1         0.0138
      81    H38     20.615485   24.466429   18.955764 H          1 MOL1         0.0794
      82    H39     22.354120   24.489813   18.636367 H          1 MOL1         0.0794
      83    O20     21.664666   25.998798   19.897152 O.3        1 MOL1        -0.5486
      84    H40     22.551266   26.098523   20.310240 H          1 MOL1         0.3769
      85    C25     24.886514   17.818065   20.888147 C.3        1 MOL1         0.2972
      86    H41     25.525302   16.973924   20.598205 H          1 MOL1         0.0751
      87    O21     23.524457   17.393270   21.105800 O.3        1 MOL1        -0.3740
      88    C26     25.442849   18.528225   22.155142 C.3        1 MOL1         0.1003
      89    H42     26.445689   18.894812   21.900028 H          1 MOL1         0.0783
      90    O22     25.549348   17.639247   23.276993 O.3        1 MOL1        -0.5519
      91    H43     24.626978   17.367195   23.514651 H          1 MOL1         0.3769
      92    C27     24.573041   19.751616   22.528239 C.3        1 MOL1         0.1053
      93    H44     23.591197   19.381452   22.854235 H          1 MOL1         0.0783
      94    O23     25.196733   20.471388   23.596043 O.3        1 MOL1        -0.5519
      95    H45     25.517886   19.780368   24.218460 H          1 MOL1         0.3769
      96    C28     24.356872   20.687492   21.311791 C.3        1 MOL1         0.1018
      97    H46     25.275976   21.252506   21.106173 H          1 MOL1         0.0783
      98    C29     23.950348   19.911093   20.032593 C.3        1 MOL1         0.1043
      99    H47     22.923783   19.548801   20.155141 H          1 MOL1         0.0783
     100    O24     24.859794   18.800478   19.831162 O.3        1 MOL1        -0.3740
     101    C30     23.996041   20.789850   18.766247 C.3        1 MOL1         0.0138
     102    H48     25.039604   21.042384   18.535245 H          1 MOL1         0.0794
     103    H49     23.460321   21.728843   18.953729 H          1 MOL1         0.0794
     104    O25     23.389037   20.095409   17.674252 O.3        1 MOL1        -0.5486
     105    H50     23.863360   19.238313   17.596696 H          1 MOL1         0.3769
     106    C31     21.208897   14.054319   21.949765 C.3        1 MOL1         0.2972
     107    H51     20.829397   13.069652   22.251613 H          1 MOL1         0.0751
     108    O26     20.211156   14.813541   21.238699 O.3        1 MOL1        -0.3740
     109    C32     21.675767   14.859421   23.192064 C.3        1 MOL1         0.1003
     110    H52     22.473150   14.277804   23.672809 H          1 MOL1         0.0783
     111    O27     20.609329   15.064017   24.132778 O.3        1 MOL1        -0.5519
     112    H53     19.906484   14.401236   23.928174 H          1 MOL1         0.3769
     113    C33     22.260968   16.225655   22.772127 C.3        1 MOL1         0.1053
     114    H54     21.437571   16.826862   22.369166 H          1 MOL1         0.0783
     115    O28     22.816698   16.870700   23.922350 O.3        1 MOL1        -0.5519
     116    H55     22.132738   16.758577   24.620431 H          1 MOL1         0.3769
     117    C34     23.334737   16.078669   21.666691 C.3        1 MOL1         0.1018
     118    H56     24.254729   15.686589   22.119452 H          1 MOL1         0.0783
     119    C35     22.876271   15.136462   20.518294 C.3        1 MOL1         0.1043
     120    H57     22.095489   15.649247   19.940759 H          1 MOL1         0.0783
     121    O29     22.346723   13.905424   21.073291 O.3        1 MOL1        -0.3740
     122    C36     24.009297   14.761892   19.536952 C.3        1 MOL1         0.0138
     123    H58     24.339673   15.666761   19.010003 H          1 MOL1         0.0794
     124    H59     23.608474   14.073339   18.781035 H          1 MOL1         0.0794
     125    O30     25.111619   14.160178   20.221832 O.3        1 MOL1        -0.5486
     126    H60     24.751511   13.371734   20.685710 H          1 MOL1         0.3769
     127    N1      19.294928   18.861397   16.879169 N.4        1 MOL1        -0.5919
     128    H1      18.944386   19.834141   16.893936 H          1 MOL1         0.3682
     129    H2      20.267866   18.889756   16.559589 H          1 MOL1         0.3682
     130    H3      18.751654   18.354513   16.173719 H          1 MOL1         0.3682
     131    C1      19.164495   18.232750   18.248597 C.3        1 MOL1         0.0252
     132    H4      19.427814   17.174593   18.172209 H          1 MOL1         0.0971
     133    H5      18.114480   18.308218   18.543422 H          1 MOL1         0.0971
     134    C2      20.050707   18.917005   19.301943 C.3        1 MOL1        -0.1369
     135    H6      21.086831   18.573096   19.186525 H          1 MOL1         0.0997
     136    H7      20.053366   20.000949   19.125315 H          1 MOL1         0.0997
     137    C3      19.545001   18.637888   20.732758 C.3        1 MOL1        -0.1329
     138    H8      19.596700   17.563314   20.952265 H          1 MOL1         0.0997
     139    H9      18.488533   18.926631   20.796083 H          1 MOL1         0.0997
     140    C4      20.350825   19.425065   21.786162 C.3        1 MOL1        -0.1305
     141    H10     21.394941   19.087894   21.785465 H          1 MOL1         0.0997
     142    H11     20.362680   20.487024   21.511896 H          1 MOL1         0.0997
     143    C5      19.763518   19.266650   23.204274 C.3        1 MOL1        -0.2320
     144    H12     18.755867   19.697939   23.264611 H          1 MOL1         0.1008
     145    H13     19.701940   18.209223   23.494215 H          1 MOL1         0.1008
     146    H14     20.391678   19.781567   23.942650 H          1 MOL1         0.1008
@<TRIPOS>BOND
    1     1     2    1
    2     1     3    1
    3     1     4    1
    4     4     5    1
    5     4     6    1
    6     6     7    1
    7     4     8    1
    8     8     9    1
    9     8    10    1
   10    10    11    1
   11     8    12    1
   12    12    13    1
   13    12    14    1
   14    14    15    1
   15     1    16    1
   16    14    16    1
   17    14    17    1
   18    17    18    1
   19    17    19    1
   20    17    20    1
   21    20    21    1
   22    22    23    1
   23    22    24    1
   24    22    25    1
   25    25    26    1
   26    25    27    1
   27    27    28    1
   28    25    29    1
   29    29    30    1
   30    29    31    1
   31    31    32    1
   32     3    33    1
   33    29    33    1
   34    33    34    1
   35    33    35    1
   36    35    36    1
   37    22    37    1
   38    35    37    1
   39    35    38    1
   40    38    39    1
   41    38    40    1
   42    38    41    1
   43    41    42    1
   44    43    44    1
   45    43    45    1
   46    43    46    1
   47    46    47    1
   48    46    48    1
   49    48    49    1
   50    46    50    1
   51    50    51    1
   52    50    52    1
   53    52    53    1
   54    24    54    1
   55    50    54    1
   56    54    55    1
   57    54    56    1
   58    56    57    1
   59    43    58    1
   60    56    58    1
   61    56    59    1
   62    59    60    1
   63    59    61    1
   64    59    62    1
   65    62    63    1
   66    64    65    1
   67    64    66    1
   68    64    67    1
   69    67    68    1
   70    67    69    1
   71    69    70    1
   72    67    71    1
   73    71    72    1
   74    71    73    1
   75    73    74    1
   76    45    75    1
   77    71    75    1
   78    75    76    1
   79    75    77    1
   80    77    78    1
   81    64    79    1
   82    77    79    1
   83    77    80    1
   84    80    81    1
   85    80    82    1
   86    80    83    1
   87    83    84    1
   88    85    86    1
   89    85    87    1
   90    85    88    1
   91    88    89    1
   92    88    90    1
   93    90    91    1
   94    88    92    1
   95    92    93    1
   96    92    94    1
   97    94    95    1
   98    66    96    1
   99    92    96    1
  100    96    97    1
  101    96    98    1
  102    98    99    1
  103    85   100    1
  104    98   100    1
  105    98   101    1
  106   101   102    1
  107   101   103    1
  108   101   104    1
  109   104   105    1
  110   106   107    1
  111    12   108    1
  112   106   108    1
  113   106   109    1
  114   109   110    1
  115   109   111    1
  116   111   112    1
  117   109   113    1
  118   113   114    1
  119   113   115    1
  120   115   116    1
  121    87   117    1
  122   113   117    1
  123   117   118    1
  124   117   119    1
  125   119   120    1
  126   106   121    1
  127   119   121    1
  128   119   122    1
  129   122   123    1
  130   122   124    1
  131   122   125    1
  132   125   126    1
  133   127   128    1
  134   127   129    1
  135   127   130    1
  136   127   131    1
  137   131   132    1
  138   131   133    1
  139   131   134    1
  140   134   135    1
  141   134   136    1
  142   134   137    1
  143   137   138    1
  144   137   139    1
  145   137   140    1
  146   140   141    1
  147   140   142    1
  148   140   143    1
  149   143   144    1
  150   143   145    1
  151   143   146    1
@<TRIPOS>SUBSTRUCTURE
       1 MOL1            1 RESIDUE      1      MOL     
       2 MOL1          146 RESIDUE      1      MOL     
@<SCITEGIC>MOL_PROPERTY
VM2 Rank
SciTegic.value.IntegerValue
1

@<SCITEGIC>MOL_PROPERTY
Conf_Id
SciTegic.value.IntegerValue
11227

@<SCITEGIC>MOL_PROPERTY
Probability
SciTegic.value.DoubleValue
2.43

@<SCITEGIC>MOL_PROPERTY
Sum Probability
SciTegic.value.DoubleValue
2.43

@<SCITEGIC>MOL_PROPERTY
Delta G
SciTegic.value.DoubleValue
0.000

@<SCITEGIC>MOL_PROPERTY
G
SciTegic.value.DoubleValue
547.806

@<SCITEGIC>MOL_PROPERTY
E
SciTegic.value.DoubleValue
354.413

@<SCITEGIC>MOL_PROPERTY
-TS
SciTegic.value.DoubleValue
193.393

@<SCITEGIC>MOL_PROPERTY
U+W
SciTegic.value.DoubleValue
225.642

@<SCITEGIC>MOL_PROPERTY
U
SciTegic.value.DoubleValue
295.440

@<SCITEGIC>MOL_PROPERTY
W
SciTegic.value.DoubleValue
-69.797

@<SCITEGIC>MOL_PROPERTY
W(PB)
SciTegic.value.DoubleValue
-75.736

@<SCITEGIC>MOL_PROPERTY
W(SA)
SciTegic.value.DoubleValue
5.939

@<SCITEGIC>MOL_PROPERTY
Valence
SciTegic.value.DoubleValue
145.580

@<SCITEGIC>MOL_PROPERTY
Coulomb
SciTegic.value.DoubleValue
173.923

@<SCITEGIC>MOL_PROPERTY
VdW
SciTegic.value.DoubleValue
-24.064

@<SCITEGIC>MOL_PROPERTY
VdW6
SciTegic.value.DoubleValue
-173.765

@<SCITEGIC>MOL_PROPERTY
VdW12
SciTegic.value.DoubleValue
149.701

@<SCITEGIC>MOL_PROPERTY
Bond
SciTegic.value.DoubleValue
4.331

@<SCITEGIC>MOL_PROPERTY
Angle
SciTegic.value.DoubleValue
9.927

@<SCITEGIC>MOL_PROPERTY
Pdih
SciTegic.value.DoubleValue
131.323

@<SCITEGIC>MOL_PROPERTY
Idih
SciTegic.value.DoubleValue
0.000

@<SCITEGIC>MOL_PROPERTY
Tether
SciTegic.value.DoubleValue
0.000

