@<TRIPOS>MOLECULE
CD_guest-4_vm2_rndm.mol2 : vm2 host+ligand conformer 1
         142         148           2
SMALL
USER_CHARGES
 
@<TRIPOS>ATOM
       1    C1      16.280331   15.118892   21.217364 C.3        1 MOL1         0.2972
       2    H1      15.194916   14.957506   21.187076 H          1 MOL1         0.0751
       3    O1      16.607665   16.507986   21.424441 O.3        1 MOL1        -0.3740
       4    C2      16.932161   14.286339   22.351489 C.3        1 MOL1         0.1003
       5    H2      16.729147   13.229138   22.136701 H          1 MOL1         0.0783
       6    O2      16.372435   14.617022   23.632113 O.3        1 MOL1        -0.5519
       7    H3      16.396112   15.603469   23.723241 H          1 MOL1         0.3769
       8    C3      18.468336   14.480738   22.361048 C.3        1 MOL1         0.1053
       9    H4      18.681780   15.516643   22.650006 H          1 MOL1         0.0783
      10    O3      19.054913   13.581854   23.308313 O.3        1 MOL1        -0.5519
      11    H5      18.515845   13.682959   24.123762 H          1 MOL1         0.3769
      12    C4      19.078279   14.235823   20.958752 C.3        1 MOL1         0.1018
      13    H6      19.095907   13.153322   20.775448 H          1 MOL1         0.0783
      14    C5      18.290834   14.953559   19.827247 C.3        1 MOL1         0.1043
      15    H7      18.480128   16.032756   19.902568 H          1 MOL1         0.0783
      16    O4      16.872928   14.696464   19.971278 O.3        1 MOL1        -0.3740
      17    C6      18.705835   14.501524   18.409194 C.3        1 MOL1         0.0138
      18    H8      19.752445   14.782644   18.234653 H          1 MOL1         0.0794
      19    H9      18.096236   15.043157   17.673642 H          1 MOL1         0.0794
      20    O5      18.540573   13.089556   18.247542 O.3        1 MOL1        -0.5486
      21    H10     17.596327   12.899521   18.444405 H          1 MOL1         0.3769
      22    C7      14.892612   20.247573   21.900868 C.3        1 MOL1         0.2972
      23    H11     14.232372   21.107260   22.073695 H          1 MOL1         0.0751
      24    O6      16.172888   20.655097   21.376063 O.3        1 MOL1        -0.3740
      25    C8      15.108534   19.460314   23.218680 C.3        1 MOL1         0.1003
      26    H12     14.127537   19.079350   23.531286 H          1 MOL1         0.0783
      27    O7      15.635138   20.294237   24.262327 O.3        1 MOL1        -0.5519
      28    H13     15.663120   21.217955   23.912581 H          1 MOL1         0.3769
      29    C9      16.036044   18.247671   22.977907 C.3        1 MOL1         0.1053
      30    H14     17.028653   18.626194   22.705403 H          1 MOL1         0.0783
      31    O8      16.120813   17.479111   24.181152 O.3        1 MOL1        -0.5519
      32    H15     16.234167   18.150630   24.891195 H          1 MOL1         0.3769
      33    C10     15.518109   17.367157   21.814743 C.3        1 MOL1         0.1018
      34    H16     14.653340   16.794647   22.175845 H          1 MOL1         0.0783
      35    C11     15.118020   18.203758   20.564997 C.3        1 MOL1         0.1043
      36    H17     16.037623   18.565380   20.085867 H          1 MOL1         0.0783
      37    O9      14.296235   19.335265   20.953840 O.3        1 MOL1        -0.3740
      38    C12     14.330173   17.391525   19.512976 C.3        1 MOL1         0.0138
      39    H18     14.973626   16.593164   19.120157 H          1 MOL1         0.0794
      40    H19     14.079624   18.051760   18.671912 H          1 MOL1         0.0794
      41    O10     13.140104   16.832891   20.077401 O.3        1 MOL1        -0.5486
      42    H20     12.621568   17.589836   20.430584 H          1 MOL1         0.3769
      43    C13     18.418119   24.068319   20.692150 C.3        1 MOL1         0.2972
      44    H21     18.801917   25.052770   20.395780 H          1 MOL1         0.0751
      45    O11     19.468680   23.191974   21.149519 O.3        1 MOL1        -0.3740
      46    C14     17.392228   24.210367   21.842198 C.3        1 MOL1         0.1003
      47    H22     16.562513   24.824670   21.468938 H          1 MOL1         0.0783
      48    O12     17.982002   24.857347   22.981146 O.3        1 MOL1        -0.5519
      49    H23     18.907290   24.514209   23.070125 H          1 MOL1         0.3769
      50    C15     16.820963   22.827692   22.240642 C.3        1 MOL1         0.1053
      51    H24     17.633064   22.248353   22.698217 H          1 MOL1         0.0783
      52    O13     15.767170   23.019267   23.189824 O.3        1 MOL1        -0.5519
      53    H25     16.100278   23.719172   23.796774 H          1 MOL1         0.3769
      54    C16     16.304841   22.041192   21.003790 C.3        1 MOL1         0.1018
      55    H26     15.345383   22.461260   20.673475 H          1 MOL1         0.0783
      56    C17     17.297419   22.080839   19.810292 C.3        1 MOL1         0.1043
      57    H27     18.157712   21.437839   20.033132 H          1 MOL1         0.0783
      58    O14     17.736483   23.442041   19.585830 O.3        1 MOL1        -0.3740
      59    C18     16.645587   21.579535   18.505023 C.3        1 MOL1         0.0138
      60    H28     15.808650   22.239588   18.240383 H          1 MOL1         0.0794
      61    H29     16.238120   20.572968   18.667975 H          1 MOL1         0.0794
      62    O15     17.613079   21.550747   17.453799 O.3        1 MOL1        -0.5486
      63    H30     17.992824   22.456158   17.410556 H          1 MOL1         0.3769
      64    C19     23.591132   22.743866   21.269235 C.3        1 MOL1         0.2972
      65    H31     24.680575   22.859076   21.199093 H          1 MOL1         0.0751
      66    O16     23.218404   21.375440   21.529645 O.3        1 MOL1        -0.3740
      67    C20     22.999705   23.655334   22.377399 C.3        1 MOL1         0.1003
      68    H32     23.209324   24.693620   22.089070 H          1 MOL1         0.0783
      69    O17     23.599696   23.401231   23.656235 O.3        1 MOL1        -0.5519
      70    H33     23.435482   22.448665   23.873788 H          1 MOL1         0.3769
      71    C21     21.463231   23.483305   22.449376 C.3        1 MOL1         0.1053
      72    H34     21.250918   22.456724   22.773701 H          1 MOL1         0.0783
      73    O18     20.918456   24.412792   23.391605 O.3        1 MOL1        -0.5519
      74    H35     21.515510   24.366783   24.171390 H          1 MOL1         0.3769
      75    C22     20.813120   23.701216   21.060268 C.3        1 MOL1         0.1018
      76    H36     20.832506   24.775886   20.836547 H          1 MOL1         0.0783
      77    C23     21.542375   22.919422   19.931600 C.3        1 MOL1         0.1043
      78    H37     21.319953   21.850325   20.048681 H          1 MOL1         0.0783
      79    O19     22.973783   23.135115   20.024280 O.3        1 MOL1        -0.3740
      80    C24     21.099991   23.339153   18.512318 C.3        1 MOL1         0.0138
      81    H38     20.036828   23.101508   18.383135 H          1 MOL1         0.0794
      82    H39     21.658352   22.743193   17.778102 H          1 MOL1         0.0794
      83    O20     21.324620   24.735012   18.292520 O.3        1 MOL1        -0.5486
      84    H40     22.281686   24.887676   18.457047 H          1 MOL1         0.3769
      85    C25     24.656024   17.644461   22.550693 C.3        1 MOL1         0.2972
      86    H41     25.227663   16.774624   22.897756 H          1 MOL1         0.0751
      87    O21     23.463427   17.245894   21.844697 O.3        1 MOL1        -0.3740
      88    C26     24.259330   18.531196   23.757761 C.3        1 MOL1         0.1003
      89    H42     25.191279   18.877241   24.223200 H          1 MOL1         0.0783
      90    O22     23.503136   17.792738   24.728451 O.3        1 MOL1        -0.5519
      91    H43     22.692035   17.450119   24.275184 H          1 MOL1         0.3769
      92    C27     23.468864   19.775871   23.297363 C.3        1 MOL1         0.1053
      93    H44     22.503068   19.433960   22.907337 H          1 MOL1         0.0783
      94    O23     23.263593   20.638369   24.420254 O.3        1 MOL1        -0.5519
      95    H45     22.981735   20.041521   25.148364 H          1 MOL1         0.3769
      96    C28     24.204752   20.541290   22.169644 C.3        1 MOL1         0.1018
      97    H46     25.017567   21.130554   22.614886 H          1 MOL1         0.0783
      98    C29     24.767621   19.596054   21.071607 C.3        1 MOL1         0.1043
      99    H47     23.916651   19.243948   20.476958 H          1 MOL1         0.0783
     100    O24     25.451556   18.460535   21.663226 O.3        1 MOL1        -0.3740
     101    C30     25.754043   20.292741   20.108309 C.3        1 MOL1         0.0138
     102    H48     25.221221   21.078135   19.555907 H          1 MOL1         0.0794
     103    H49     26.107242   19.558504   19.371923 H          1 MOL1         0.0794
     104    O25     26.860583   20.854337   20.819813 O.3        1 MOL1        -0.5486
     105    H50     27.278409   20.111835   21.310523 H          1 MOL1         0.3769
     106    C31     21.451866   13.990013   20.416017 C.3        1 MOL1         0.2972
     107    H51     21.060129   13.086024   19.932069 H          1 MOL1         0.0751
     108    O26     20.401658   14.800174   20.979196 O.3        1 MOL1        -0.3740
     109    C32     22.441261   13.626876   21.546432 C.3        1 MOL1         0.1003
     110    H52     23.278535   13.085286   21.087497 H          1 MOL1         0.0783
     111    O27     21.813545   12.783930   22.525952 O.3        1 MOL1        -0.5519
     112    H53     20.954542   13.212080   22.774124 H          1 MOL1         0.3769
     113    C33     23.006414   14.904552   22.213948 C.3        1 MOL1         0.1053
     114    H54     22.192512   15.359761   22.791136 H          1 MOL1         0.0783
     115    O28     24.070753   14.527554   23.093102 O.3        1 MOL1        -0.5519
     116    H55     23.699254   13.812155   23.654411 H          1 MOL1         0.3769
     117    C34     23.507000   15.961546   21.185480 C.3        1 MOL1         0.1018
     118    H56     24.527011   15.708860   20.866255 H          1 MOL1         0.0783
     119    C35     22.606690   16.088881   19.922383 C.3        1 MOL1         0.1043
     120    H57     21.731640   16.704927   20.168484 H          1 MOL1         0.0783
     121    O29     22.183887   14.782789   19.464263 O.3        1 MOL1        -0.3740
     122    C36     23.353580   16.745215   18.742508 C.3        1 MOL1         0.0138
     123    H58     24.171336   16.085845   18.421843 H          1 MOL1         0.0794
     124    H59     23.801231   17.689627   19.068977 H          1 MOL1         0.0794
     125    O30     22.450375   16.983421   17.661469 O.3        1 MOL1        -0.5486
     126    H60     22.014429   16.121864   17.477913 H          1 MOL1         0.3769
     127    C1      19.685005   19.775076   22.311375 C.3        1 MOL1        -0.1689
     128    H1      20.597848   20.274435   21.963033 H          1 MOL1         0.0830
     129    H2      18.877185   20.039357   21.619495 H          1 MOL1         0.0830
     130    C2      19.348029   20.216917   23.747011 C.3        1 MOL1        -0.1689
     131    H3      18.260631   20.294106   23.861766 H          1 MOL1         0.0830
     132    H4      19.781221   21.193390   23.998832 H          1 MOL1         0.0830
     133    C3      19.873533   19.098993   24.659434 C.3        1 MOL1        -0.1765
     134    H5      19.299745   19.032624   25.592357 H          1 MOL1         0.0830
     135    H6      20.921353   19.293084   24.915419 H          1 MOL1         0.0830
     136    C4      19.762764   17.813072   23.830874 C.3        1 MOL1         0.1214
     137    H7      18.766803   17.374937   23.980286 H          1 MOL1         0.0787
     138    C5      19.902460   18.246861   22.360128 C.3        1 MOL1        -0.1765
     139    H8      20.895712   17.993255   21.972291 H          1 MOL1         0.0830
     140    H9      19.163978   17.725819   21.738791 H          1 MOL1         0.0830
     141    O1      20.786034   16.898183   24.195787 O.3        1 MOL1        -0.5512
     142    H10     20.561637   16.573889   25.091188 H          1 MOL1         0.3776
@<TRIPOS>BOND
    1     1     2    1
    2     1     3    1
    3     1     4    1
    4     4     5    1
    5     4     6    1
    6     6     7    1
    7     4     8    1
    8     8     9    1
    9     8    10    1
   10    10    11    1
   11     8    12    1
   12    12    13    1
   13    12    14    1
   14    14    15    1
   15     1    16    1
   16    14    16    1
   17    14    17    1
   18    17    18    1
   19    17    19    1
   20    17    20    1
   21    20    21    1
   22    22    23    1
   23    22    24    1
   24    22    25    1
   25    25    26    1
   26    25    27    1
   27    27    28    1
   28    25    29    1
   29    29    30    1
   30    29    31    1
   31    31    32    1
   32     3    33    1
   33    29    33    1
   34    33    34    1
   35    33    35    1
   36    35    36    1
   37    22    37    1
   38    35    37    1
   39    35    38    1
   40    38    39    1
   41    38    40    1
   42    38    41    1
   43    41    42    1
   44    43    44    1
   45    43    45    1
   46    43    46    1
   47    46    47    1
   48    46    48    1
   49    48    49    1
   50    46    50    1
   51    50    51    1
   52    50    52    1
   53    52    53    1
   54    24    54    1
   55    50    54    1
   56    54    55    1
   57    54    56    1
   58    56    57    1
   59    43    58    1
   60    56    58    1
   61    56    59    1
   62    59    60    1
   63    59    61    1
   64    59    62    1
   65    62    63    1
   66    64    65    1
   67    64    66    1
   68    64    67    1
   69    67    68    1
   70    67    69    1
   71    69    70    1
   72    67    71    1
   73    71    72    1
   74    71    73    1
   75    73    74    1
   76    45    75    1
   77    71    75    1
   78    75    76    1
   79    75    77    1
   80    77    78    1
   81    64    79    1
   82    77    79    1
   83    77    80    1
   84    80    81    1
   85    80    82    1
   86    80    83    1
   87    83    84    1
   88    85    86    1
   89    85    87    1
   90    85    88    1
   91    88    89    1
   92    88    90    1
   93    90    91    1
   94    88    92    1
   95    92    93    1
   96    92    94    1
   97    94    95    1
   98    66    96    1
   99    92    96    1
  100    96    97    1
  101    96    98    1
  102    98    99    1
  103    85   100    1
  104    98   100    1
  105    98   101    1
  106   101   102    1
  107   101   103    1
  108   101   104    1
  109   104   105    1
  110   106   107    1
  111    12   108    1
  112   106   108    1
  113   106   109    1
  114   109   110    1
  115   109   111    1
  116   111   112    1
  117   109   113    1
  118   113   114    1
  119   113   115    1
  120   115   116    1
  121    87   117    1
  122   113   117    1
  123   117   118    1
  124   117   119    1
  125   119   120    1
  126   106   121    1
  127   119   121    1
  128   119   122    1
  129   122   123    1
  130   122   124    1
  131   122   125    1
  132   125   126    1
  133   127   128    1
  134   127   129    1
  135   127   130    1
  136   130   131    1
  137   130   132    1
  138   130   133    1
  139   133   134    1
  140   133   135    1
  141   133   136    1
  142   136   137    1
  143   127   138    1
  144   136   138    1
  145   138   139    1
  146   138   140    1
  147   136   141    1
  148   141   142    1
@<TRIPOS>SUBSTRUCTURE
       1 MOL1            1 RESIDUE      1      MOL     
       2 MOL1          142 RESIDUE      1      MOL     
@<SCITEGIC>MOL_PROPERTY
VM2 Rank
SciTegic.value.IntegerValue
1

@<SCITEGIC>MOL_PROPERTY
Conf_Id
SciTegic.value.IntegerValue
22426

@<SCITEGIC>MOL_PROPERTY
Probability
SciTegic.value.DoubleValue
1.35

@<SCITEGIC>MOL_PROPERTY
Sum Probability
SciTegic.value.DoubleValue
1.35

@<SCITEGIC>MOL_PROPERTY
Delta G
SciTegic.value.DoubleValue
0.000

@<SCITEGIC>MOL_PROPERTY
G
SciTegic.value.DoubleValue
549.364

@<SCITEGIC>MOL_PROPERTY
E
SciTegic.value.DoubleValue
365.041

@<SCITEGIC>MOL_PROPERTY
-TS
SciTegic.value.DoubleValue
184.323

@<SCITEGIC>MOL_PROPERTY
U+W
SciTegic.value.DoubleValue
239.847

@<SCITEGIC>MOL_PROPERTY
U
SciTegic.value.DoubleValue
272.924

@<SCITEGIC>MOL_PROPERTY
W
SciTegic.value.DoubleValue
-33.077

@<SCITEGIC>MOL_PROPERTY
W(PB)
SciTegic.value.DoubleValue
-39.202

@<SCITEGIC>MOL_PROPERTY
W(SA)
SciTegic.value.DoubleValue
6.125

@<SCITEGIC>MOL_PROPERTY
Valence
SciTegic.value.DoubleValue
158.222

@<SCITEGIC>MOL_PROPERTY
Coulomb
SciTegic.value.DoubleValue
139.347

@<SCITEGIC>MOL_PROPERTY
VdW
SciTegic.value.DoubleValue
-24.645

@<SCITEGIC>MOL_PROPERTY
VdW6
SciTegic.value.DoubleValue
-169.637

@<SCITEGIC>MOL_PROPERTY
VdW12
SciTegic.value.DoubleValue
144.992

@<SCITEGIC>MOL_PROPERTY
Bond
SciTegic.value.DoubleValue
4.314

@<SCITEGIC>MOL_PROPERTY
Angle
SciTegic.value.DoubleValue
12.260

@<SCITEGIC>MOL_PROPERTY
Pdih
SciTegic.value.DoubleValue
141.649

@<SCITEGIC>MOL_PROPERTY
Idih
SciTegic.value.DoubleValue
0.000

@<SCITEGIC>MOL_PROPERTY
Tether
SciTegic.value.DoubleValue
0.000

