@<TRIPOS>MOLECULE
CD_guest-6_vm2_rndm.mol2 : vm2 host+ligand conformer 1
         139         144           2
SMALL
USER_CHARGES
 
@<TRIPOS>ATOM
       1    C1      16.205913   15.148946   20.595498 C.3        1 MOL1         0.2972
       2    H1      15.140445   15.040191   20.355674 H          1 MOL1         0.0751
       3    O1      16.533419   16.518034   20.909237 O.3        1 MOL1        -0.3740
       4    C2      16.611378   14.213219   21.768187 C.3        1 MOL1         0.1003
       5    H2      16.434056   13.184078   21.430732 H          1 MOL1         0.0783
       6    O2      15.806086   14.456389   22.931861 O.3        1 MOL1        -0.5519
       7    H3      16.105203   15.322767   23.305018 H          1 MOL1         0.3769
       8    C3      18.125599   14.349212   22.082206 C.3        1 MOL1         0.1053
       9    H4      18.302933   15.349252   22.501400 H          1 MOL1         0.0783
      10    O3      18.531861   13.345083   23.020465 O.3        1 MOL1        -0.5519
      11    H5      19.506723   13.451155   23.148927 H          1 MOL1         0.3769
      12    C4      18.985536   14.200524   20.800755 C.3        1 MOL1         0.1018
      13    H6      19.029899   13.136396   20.534127 H          1 MOL1         0.0783
      14    C5      18.432538   15.004029   19.592681 C.3        1 MOL1         0.1043
      15    H7      18.623346   16.071078   19.767244 H          1 MOL1         0.0783
      16    O4      17.007331   14.772256   19.456255 O.3        1 MOL1        -0.3740
      17    C6      19.099250   14.619571   18.253287 C.3        1 MOL1         0.0138
      18    H8      20.174821   14.830702   18.313078 H          1 MOL1         0.0794
      19    H9      18.684658   15.254177   17.458766 H          1 MOL1         0.0794
      20    O5      18.882917   13.238384   17.948212 O.3        1 MOL1        -0.5486
      21    H10     17.909234   13.103914   17.970607 H          1 MOL1         0.3769
      22    C7      15.019884   20.149312   22.142912 C.3        1 MOL1         0.2972
      23    H11     14.428031   20.989004   22.528076 H          1 MOL1         0.0751
      24    O6      16.200327   20.602846   21.445036 O.3        1 MOL1        -0.3740
      25    C8      15.457254   19.218011   23.301807 C.3        1 MOL1         0.1003
      26    H12     14.546404   18.812293   23.760447 H          1 MOL1         0.0783
      27    O7      16.188004   19.959727   24.293381 O.3        1 MOL1        -0.5519
      28    H13     17.045930   19.482190   24.450103 H          1 MOL1         0.3769
      29    C9      16.280410   18.027614   22.747941 C.3        1 MOL1         0.1053
      30    H14     17.207225   18.425761   22.323989 H          1 MOL1         0.0783
      31    O8      16.592259   17.106980   23.800643 O.3        1 MOL1        -0.5519
      32    H15     17.372354   17.504800   24.271679 H          1 MOL1         0.3769
      33    C10     15.537583   17.298887   21.600153 C.3        1 MOL1         0.1018
      34    H16     14.742565   16.674755   22.028347 H          1 MOL1         0.0783
      35    C11     14.936913   18.285243   20.558602 C.3        1 MOL1         0.1043
      36    H17     15.762678   18.703625   19.968105 H          1 MOL1         0.0783
      37    O9      14.230096   19.358030   21.229497 O.3        1 MOL1        -0.3740
      38    C12     13.953699   17.616114   19.572655 C.3        1 MOL1         0.0138
      39    H18     14.499541   16.880885   18.966756 H          1 MOL1         0.0794
      40    H19     13.567201   18.381611   18.886424 H          1 MOL1         0.0794
      41    O10     12.875571   16.981155   20.266080 O.3        1 MOL1        -0.5486
      42    H20     12.448538   17.680220   20.809763 H          1 MOL1         0.3769
      43    C13     18.423362   24.093571   20.943855 C.3        1 MOL1         0.2972
      44    H21     18.753701   25.115150   20.718056 H          1 MOL1         0.0751
      45    O11     19.536186   23.215126   21.207478 O.3        1 MOL1        -0.3740
      46    C14     17.496379   24.095932   22.184977 C.3        1 MOL1         0.1003
      47    H22     16.633126   24.731407   21.948068 H          1 MOL1         0.0783
      48    O12     18.170458   24.625897   23.335104 O.3        1 MOL1        -0.5519
      49    H23     17.561234   24.440968   24.085042 H          1 MOL1         0.3769
      50    C15     16.969664   22.673874   22.492391 C.3        1 MOL1         0.1053
      51    H24     17.824426   22.059715   22.805742 H          1 MOL1         0.0783
      52    O13     16.017227   22.755117   23.559518 O.3        1 MOL1        -0.5519
      53    H25     15.978092   21.849033   23.954940 H          1 MOL1         0.3769
      54    C16     16.336417   22.022178   21.229188 C.3        1 MOL1         0.1018
      55    H26     15.363761   22.486170   21.018760 H          1 MOL1         0.0783
      56    C17     17.249701   22.175271   19.982161 C.3        1 MOL1         0.1043
      57    H27     18.128449   21.529776   20.114102 H          1 MOL1         0.0783
      58    O14     17.670840   23.553936   19.838150 O.3        1 MOL1        -0.3740
      59    C18     16.551820   21.761998   18.667320 C.3        1 MOL1         0.0138
      60    H28     16.237440   20.712737   18.741235 H          1 MOL1         0.0794
      61    H29     17.278075   21.831046   17.846568 H          1 MOL1         0.0794
      62    O15     15.422118   22.598107   18.400203 O.3        1 MOL1        -0.5486
      63    H30     15.754690   23.522619   18.438571 H          1 MOL1         0.3769
      64    C19     23.635607   22.807889   20.920160 C.3        1 MOL1         0.2972
      65    H31     24.714564   22.918038   20.751854 H          1 MOL1         0.0751
      66    O16     23.284362   21.430228   21.168307 O.3        1 MOL1        -0.3740
      67    C20     23.159303   23.713737   22.090406 C.3        1 MOL1         0.1003
      68    H32     23.355681   24.751088   21.790711 H          1 MOL1         0.0783
      69    O17     23.892212   23.441822   23.294552 O.3        1 MOL1        -0.5519
      70    H33     23.565617   22.570565   23.631363 H          1 MOL1         0.3769
      71    C21     21.628968   23.570273   22.306346 C.3        1 MOL1         0.1053
      72    H34     21.427689   22.557774   22.681175 H          1 MOL1         0.0783
      73    O18     21.159225   24.542654   23.248798 O.3        1 MOL1        -0.5519
      74    H35     20.176522   24.442876   23.296398 H          1 MOL1         0.3769
      75    C22     20.850335   23.760316   20.979996 C.3        1 MOL1         0.1018
      76    H36     20.818670   24.833271   20.749200 H          1 MOL1         0.0783
      77    C23     21.477889   22.998226   19.780780 C.3        1 MOL1         0.1043
      78    H37     21.271003   21.927053   19.903471 H          1 MOL1         0.0783
      79    O19     22.910212   23.224156   19.744510 O.3        1 MOL1        -0.3740
      80    C24     20.903816   23.435677   18.414850 C.3        1 MOL1         0.0138
      81    H38     19.827807   23.221040   18.390420 H          1 MOL1         0.0794
      82    H39     21.374859   22.834020   17.626155 H          1 MOL1         0.0794
      83    O20     21.135567   24.828165   18.180743 O.3        1 MOL1        -0.5486
      84    H40     22.105590   24.961747   18.269243 H          1 MOL1         0.3769
      85    C25     24.707313   17.769522   22.447209 C.3        1 MOL1         0.2972
      86    H41     25.273326   16.927196   22.864244 H          1 MOL1         0.0751
      87    O21     23.592364   17.319480   21.647607 O.3        1 MOL1        -0.3740
      88    C26     24.173613   18.679538   23.583727 C.3        1 MOL1         0.1003
      89    H42     25.043813   19.075137   24.123045 H          1 MOL1         0.0783
      90    O22     23.360920   17.925590   24.499985 O.3        1 MOL1        -0.5519
      91    H43     22.480496   18.384000   24.569568 H          1 MOL1         0.3769
      92    C27     23.398003   19.880883   22.990064 C.3        1 MOL1         0.1053
      93    H44     22.502176   19.488161   22.496794 H          1 MOL1         0.0783
      94    O23     23.021764   20.787040   24.034366 O.3        1 MOL1        -0.5519
      95    H45     22.227349   20.373157   24.464624 H          1 MOL1         0.3769
      96    C28     24.223835   20.628498   21.913654 C.3        1 MOL1         0.1018
      97    H46     24.987517   21.239775   22.411678 H          1 MOL1         0.0783
      98    C29     24.899755   19.659519   20.903128 C.3        1 MOL1         0.1043
      99    H47     24.120156   19.248014   20.248395 H          1 MOL1         0.0783
     100    O24     25.560281   18.579825   21.609918 O.3        1 MOL1        -0.3740
     101    C30     25.949531   20.345821   20.001136 C.3        1 MOL1         0.0138
     102    H48     25.446623   21.090234   19.369791 H          1 MOL1         0.0794
     103    H49     26.386051   19.592106   19.332085 H          1 MOL1         0.0794
     104    O25     26.973696   20.970892   20.780091 O.3        1 MOL1        -0.5486
     105    H50     27.361107   20.263998   21.343011 H          1 MOL1         0.3769
     106    C31     21.406428   13.844023   20.946645 C.3        1 MOL1         0.2972
     107    H51     21.084942   12.826521   20.691700 H          1 MOL1         0.0751
     108    O26     20.285457   14.734752   21.119125 O.3        1 MOL1        -0.3740
     109    C32     22.230836   13.829726   22.257599 C.3        1 MOL1         0.1003
     110    H52     23.109714   13.195223   22.083905 H          1 MOL1         0.0783
     111    O27     21.471117   13.290401   23.347829 O.3        1 MOL1        -0.5519
     112    H53     22.018046   13.476741   24.144169 H          1 MOL1         0.3769
     113    C33     22.733857   15.247929   22.616190 C.3        1 MOL1         0.1053
     114    H54     21.859679   15.868676   22.859157 H          1 MOL1         0.0783
     115    O28     23.594661   15.152239   23.757593 O.3        1 MOL1        -0.5519
     116    H55     23.599575   16.053219   24.166308 H          1 MOL1         0.3769
     117    C34     23.475695   15.900771   21.414855 C.3        1 MOL1         0.1018
     118    H56     24.463177   15.436821   21.291458 H          1 MOL1         0.0783
     119    C35     22.678482   15.750711   20.089370 C.3        1 MOL1         0.1043
     120    H57     21.798833   16.405446   20.137141 H          1 MOL1         0.0783
     121    O29     22.254965   14.376581   19.908691 O.3        1 MOL1        -0.3740
     122    C36     23.498599   16.153595   18.843855 C.3        1 MOL1         0.0138
     123    H58     23.818055   17.199017   18.946633 H          1 MOL1         0.0794
     124    H59     22.849542   16.092731   17.960185 H          1 MOL1         0.0794
     125    O30     24.637331   15.302945   18.681220 O.3        1 MOL1        -0.5486
     126    H60     24.290796   14.382772   18.688552 H          1 MOL1         0.3769
     127    C1      19.755932   19.132500   24.022499 C.2        1 MOL1         0.6021
     128    O1      18.719434   18.761204   24.542032 O.co2      1 MOL1        -0.6904
     129    O2      20.828909   19.176376   24.595606 O.co2      1 MOL1        -0.6904
     130    C2      19.708406   19.558268   22.556702 C.3        1 MOL1        -0.2102
     131    H1      20.441918   20.356930   22.402749 H          1 MOL1         0.0687
     132    H2      18.728380   20.002336   22.360931 H          1 MOL1         0.0687
     133    C3      19.970228   18.387607   21.576069 C.3        1 MOL1        -0.1974
     134    H3      20.961901   17.962873   21.772140 H          1 MOL1         0.0689
     135    H4      19.247900   17.581129   21.758443 H          1 MOL1         0.0689
     136    C4      19.878882   18.841888   20.105888 C.3        1 MOL1        -0.2987
     137    H5      20.608313   19.634387   19.896997 H          1 MOL1         0.0700
     138    H6      20.084231   18.004678   19.427679 H          1 MOL1         0.0700
     139    H7      18.875364   19.223754   19.878939 H          1 MOL1         0.0700
@<TRIPOS>BOND
    1     1     2    1
    2     1     3    1
    3     1     4    1
    4     4     5    1
    5     4     6    1
    6     6     7    1
    7     4     8    1
    8     8     9    1
    9     8    10    1
   10    10    11    1
   11     8    12    1
   12    12    13    1
   13    12    14    1
   14    14    15    1
   15     1    16    1
   16    14    16    1
   17    14    17    1
   18    17    18    1
   19    17    19    1
   20    17    20    1
   21    20    21    1
   22    22    23    1
   23    22    24    1
   24    22    25    1
   25    25    26    1
   26    25    27    1
   27    27    28    1
   28    25    29    1
   29    29    30    1
   30    29    31    1
   31    31    32    1
   32     3    33    1
   33    29    33    1
   34    33    34    1
   35    33    35    1
   36    35    36    1
   37    22    37    1
   38    35    37    1
   39    35    38    1
   40    38    39    1
   41    38    40    1
   42    38    41    1
   43    41    42    1
   44    43    44    1
   45    43    45    1
   46    43    46    1
   47    46    47    1
   48    46    48    1
   49    48    49    1
   50    46    50    1
   51    50    51    1
   52    50    52    1
   53    52    53    1
   54    24    54    1
   55    50    54    1
   56    54    55    1
   57    54    56    1
   58    56    57    1
   59    43    58    1
   60    56    58    1
   61    56    59    1
   62    59    60    1
   63    59    61    1
   64    59    62    1
   65    62    63    1
   66    64    65    1
   67    64    66    1
   68    64    67    1
   69    67    68    1
   70    67    69    1
   71    69    70    1
   72    67    71    1
   73    71    72    1
   74    71    73    1
   75    73    74    1
   76    45    75    1
   77    71    75    1
   78    75    76    1
   79    75    77    1
   80    77    78    1
   81    64    79    1
   82    77    79    1
   83    77    80    1
   84    80    81    1
   85    80    82    1
   86    80    83    1
   87    83    84    1
   88    85    86    1
   89    85    87    1
   90    85    88    1
   91    88    89    1
   92    88    90    1
   93    90    91    1
   94    88    92    1
   95    92    93    1
   96    92    94    1
   97    94    95    1
   98    66    96    1
   99    92    96    1
  100    96    97    1
  101    96    98    1
  102    98    99    1
  103    85   100    1
  104    98   100    1
  105    98   101    1
  106   101   102    1
  107   101   103    1
  108   101   104    1
  109   104   105    1
  110   106   107    1
  111    12   108    1
  112   106   108    1
  113   106   109    1
  114   109   110    1
  115   109   111    1
  116   111   112    1
  117   109   113    1
  118   113   114    1
  119   113   115    1
  120   115   116    1
  121    87   117    1
  122   113   117    1
  123   117   118    1
  124   117   119    1
  125   119   120    1
  126   106   121    1
  127   119   121    1
  128   119   122    1
  129   122   123    1
  130   122   124    1
  131   122   125    1
  132   125   126    1
  133   127   128    1
  134   127   129    2
  135   127   130    1
  136   130   131    1
  137   130   132    1
  138   130   133    1
  139   133   134    1
  140   133   135    1
  141   133   136    1
  142   136   137    1
  143   136   138    1
  144   136   139    1
@<TRIPOS>SUBSTRUCTURE
       1 MOL1            1 RESIDUE      1      MOL     
       2 MOL1          139 RESIDUE      1      MOL     
@<SCITEGIC>MOL_PROPERTY
VM2 Rank
SciTegic.value.IntegerValue
1

@<SCITEGIC>MOL_PROPERTY
Conf_Id
SciTegic.value.IntegerValue
10465

@<SCITEGIC>MOL_PROPERTY
Probability
SciTegic.value.DoubleValue
2.68

@<SCITEGIC>MOL_PROPERTY
Sum Probability
SciTegic.value.DoubleValue
2.68

@<SCITEGIC>MOL_PROPERTY
Delta G
SciTegic.value.DoubleValue
0.000

@<SCITEGIC>MOL_PROPERTY
G
SciTegic.value.DoubleValue
472.967

@<SCITEGIC>MOL_PROPERTY
E
SciTegic.value.DoubleValue
293.351

@<SCITEGIC>MOL_PROPERTY
-TS
SciTegic.value.DoubleValue
179.616

@<SCITEGIC>MOL_PROPERTY
U+W
SciTegic.value.DoubleValue
170.839

@<SCITEGIC>MOL_PROPERTY
U
SciTegic.value.DoubleValue
236.057

@<SCITEGIC>MOL_PROPERTY
W
SciTegic.value.DoubleValue
-65.209

@<SCITEGIC>MOL_PROPERTY
W(PB)
SciTegic.value.DoubleValue
-71.298

@<SCITEGIC>MOL_PROPERTY
W(SA)
SciTegic.value.DoubleValue
6.089

@<SCITEGIC>MOL_PROPERTY
Valence
SciTegic.value.DoubleValue
149.610

@<SCITEGIC>MOL_PROPERTY
Coulomb
SciTegic.value.DoubleValue
103.873

@<SCITEGIC>MOL_PROPERTY
VdW
SciTegic.value.DoubleValue
-17.426

@<SCITEGIC>MOL_PROPERTY
VdW6
SciTegic.value.DoubleValue
-175.138

@<SCITEGIC>MOL_PROPERTY
VdW12
SciTegic.value.DoubleValue
157.712

@<SCITEGIC>MOL_PROPERTY
Bond
SciTegic.value.DoubleValue
5.112

@<SCITEGIC>MOL_PROPERTY
Angle
SciTegic.value.DoubleValue
12.123

@<SCITEGIC>MOL_PROPERTY
Pdih
SciTegic.value.DoubleValue
132.374

@<SCITEGIC>MOL_PROPERTY
Idih
SciTegic.value.DoubleValue
0.000

@<SCITEGIC>MOL_PROPERTY
Tether
SciTegic.value.DoubleValue
0.000

