@<TRIPOS>MOLECULE
CD_guest-s17_vm2_rndm.mol2 : vm2 host+ligand conformer 1
         151         157           2
SMALL
USER_CHARGES
 
@<TRIPOS>ATOM
       1    C1      16.270686   15.104086   21.195911 C.3        1 MOL1         0.2972
       2    H1      15.206617   14.914078   21.006584 H          1 MOL1         0.0751
       3    O1      16.578678   16.510552   21.136231 O.3        1 MOL1        -0.3740
       4    C2      16.672467   14.545860   22.586056 C.3        1 MOL1         0.1003
       5    H2      16.480887   13.465068   22.570058 H          1 MOL1         0.0783
       6    O2      15.899416   15.139917   23.636768 O.3        1 MOL1        -0.5519
       7    H3      16.362675   14.876921   24.463828 H          1 MOL1         0.3769
       8    C3      18.180789   14.752229   22.854642 C.3        1 MOL1         0.1053
       9    H4      18.364921   15.829105   22.951466 H          1 MOL1         0.0783
      10    O3      18.550910   14.080557   24.065001 O.3        1 MOL1        -0.5519
      11    H5      19.529184   14.190022   24.165563 H          1 MOL1         0.3769
      12    C4      19.036782   14.217841   21.680773 C.3        1 MOL1         0.1018
      13    H6      19.020784   13.120098   21.702833 H          1 MOL1         0.0783
      14    C5      18.516753   14.702418   20.299998 C.3        1 MOL1         0.1043
      15    H7      18.722022   15.776802   20.199389 H          1 MOL1         0.0783
      16    O4      17.090594   14.441947   20.208930 O.3        1 MOL1        -0.3740
      17    C6      19.193416   13.964380   19.126143 C.3        1 MOL1         0.0138
      18    H8      18.988851   12.888462   19.207063 H          1 MOL1         0.0794
      19    H9      20.279808   14.103959   19.185670 H          1 MOL1         0.0794
      20    O5      18.708138   14.474423   17.883034 O.3        1 MOL1        -0.5486
      21    H10     17.727706   14.427530   17.935664 H          1 MOL1         0.3769
      22    C7      14.875711   20.256213   20.590141 C.3        1 MOL1         0.2972
      23    H11     14.257736   21.106687   20.274529 H          1 MOL1         0.0751
      24    O6      16.050439   20.689079   21.306177 O.3        1 MOL1        -0.3740
      25    C8      14.063950   19.309115   21.509853 C.3        1 MOL1         0.1003
      26    H12     13.181396   18.980278   20.945976 H          1 MOL1         0.0783
      27    O7      13.642501   19.985671   22.703389 O.3        1 MOL1        -0.5519
      28    H13     13.258075   19.279471   23.269180 H          1 MOL1         0.3769
      29    C9      14.884892   18.053175   21.889006 C.3        1 MOL1         0.1053
      30    H14     15.688863   18.376109   22.558862 H          1 MOL1         0.0783
      31    O8      14.037815   17.118585   22.566889 O.3        1 MOL1        -0.5519
      32    H15     14.636776   16.442048   22.971069 H          1 MOL1         0.3769
      33    C10     15.540150   17.384014   20.651796 C.3        1 MOL1         0.1018
      34    H16     14.778895   16.837515   20.079255 H          1 MOL1         0.0783
      35    C11     16.223482   18.412887   19.713355 C.3        1 MOL1         0.1043
      36    H17     17.131580   18.797013   20.196063 H          1 MOL1         0.0783
      37    O9      15.299304   19.493557   19.440429 O.3        1 MOL1        -0.3740
      38    C12     16.623074   17.787985   18.360672 C.3        1 MOL1         0.0138
      39    H18     15.724833   17.407106   17.856666 H          1 MOL1         0.0794
      40    H19     17.293882   16.936945   18.538271 H          1 MOL1         0.0794
      41    O10     17.276968   18.764568   17.548007 O.3        1 MOL1        -0.5486
      42    H20     16.675759   19.541104   17.524842 H          1 MOL1         0.3769
      43    C13     18.348048   24.074659   21.942978 C.3        1 MOL1         0.2972
      44    H21     18.721464   25.095313   22.093260 H          1 MOL1         0.0751
      45    O11     19.426527   23.119929   21.855455 O.3        1 MOL1        -0.3740
      46    C14     17.419864   23.681000   23.119228 C.3        1 MOL1         0.1003
      47    H22     16.594171   24.404016   23.140692 H          1 MOL1         0.0783
      48    O12     18.122885   23.729126   24.369014 O.3        1 MOL1        -0.5519
      49    H23     17.513860   23.304321   25.012921 H          1 MOL1         0.3769
      50    C15     16.813339   22.274927   22.908026 C.3        1 MOL1         0.1053
      51    H24     17.622492   21.545112   23.011844 H          1 MOL1         0.0783
      52    O13     15.805106   22.026925   23.895051 O.3        1 MOL1        -0.5519
      53    H25     15.294665   21.243295   23.580332 H          1 MOL1         0.3769
      54    C16     16.193904   22.110038   21.498982 C.3        1 MOL1         0.1018
      55    H26     15.222135   22.621596   21.489424 H          1 MOL1         0.0783
      56    C17     17.103633   22.671903   20.368340 C.3        1 MOL1         0.1043
      57    H27     17.958423   21.993975   20.242375 H          1 MOL1         0.0783
      58    O14     17.575117   23.994056   20.727879 O.3        1 MOL1        -0.3740
      59    C18     16.397578   22.799610   18.999546 C.3        1 MOL1         0.0138
      60    H28     16.148570   21.799421   18.624996 H          1 MOL1         0.0794
      61    H29     17.098789   23.247187   18.282530 H          1 MOL1         0.0794
      62    O15     15.215301   23.598783   19.099063 O.3        1 MOL1        -0.5486
      63    H30     15.501970   24.470200   19.452480 H          1 MOL1         0.3769
      64    C19     23.541988   22.787817   21.415575 C.3        1 MOL1         0.2972
      65    H31     24.613558   22.973052   21.268745 H          1 MOL1         0.0751
      66    O16     23.248457   21.377884   21.471008 O.3        1 MOL1        -0.3740
      67    C20     23.070532   23.454298   22.732200 C.3        1 MOL1         0.1003
      68    H32     23.257783   24.532189   22.642161 H          1 MOL1         0.0783
      69    O17     23.794929   22.941125   23.859114 O.3        1 MOL1        -0.5519
      70    H33     23.299360   23.271993   24.641528 H          1 MOL1         0.3769
      71    C21     21.553265   23.250552   22.939813 C.3        1 MOL1         0.1053
      72    H34     21.383268   22.180362   23.104578 H          1 MOL1         0.0783
      73    O18     21.111514   24.001653   24.077765 O.3        1 MOL1        -0.5519
      74    H35     20.140774   23.833433   24.169825 H          1 MOL1         0.3769
      75    C22     20.747116   23.674365   21.688742 C.3        1 MOL1         0.1018
      76    H36     20.733283   24.770613   21.628073 H          1 MOL1         0.0783
      77    C23     21.344989   23.100551   20.375390 C.3        1 MOL1         0.1043
      78    H37     21.152003   22.019684   20.350257 H          1 MOL1         0.0783
      79    O19     22.774341   23.351024   20.330989 O.3        1 MOL1        -0.3740
      80    C24     20.727689   23.724817   19.104385 C.3        1 MOL1         0.0138
      81    H38     19.648622   23.526433   19.091918 H          1 MOL1         0.0794
      82    H39     21.161934   23.233368   18.223530 H          1 MOL1         0.0794
      83    O20     20.970310   25.133810   19.055056 O.3        1 MOL1        -0.5486
      84    H40     21.942934   25.245625   19.145039 H          1 MOL1         0.3769
      85    C25     24.978413   17.633105   20.970498 C.3        1 MOL1         0.2972
      86    H41     25.624563   16.795540   20.677644 H          1 MOL1         0.0751
      87    O21     23.766038   17.173182   21.598561 O.3        1 MOL1        -0.3740
      88    C26     25.720716   18.569426   21.960922 C.3        1 MOL1         0.1003
      89    H42     26.638243   18.909850   21.463692 H          1 MOL1         0.0783
      90    O22     26.063826   17.874414   23.168870 O.3        1 MOL1        -0.5519
      91    H43     26.412769   18.570543   23.769068 H          1 MOL1         0.3769
      92    C27     24.873102   19.818765   22.305050 C.3        1 MOL1         0.1053
      93    H44     24.031701   19.490939   22.924783 H          1 MOL1         0.0783
      94    O23     25.666215   20.757134   23.041733 O.3        1 MOL1        -0.5519
      95    H45     25.047297   21.465746   23.349628 H          1 MOL1         0.3769
      96    C28     24.299154   20.496220   21.034670 C.3        1 MOL1         0.1018
      97    H46     25.101568   21.035929   20.514061 H          1 MOL1         0.0783
      98    C29     23.667373   19.481350   20.048991 C.3        1 MOL1         0.1043
      99    H47     22.735219   19.090917   20.479785 H          1 MOL1         0.0783
     100    O24     24.612889   18.410905   19.811381 O.3        1 MOL1        -0.3740
     101    C30     23.346959   20.124678   18.683705 C.3        1 MOL1         0.0138
     102    H48     24.278630   20.476912   18.221100 H          1 MOL1         0.0794
     103    H49     22.699989   20.997709   18.835488 H          1 MOL1         0.0794
     104    O25     22.694479   19.177007   17.837130 O.3        1 MOL1        -0.5486
     105    H50     23.273488   18.383726   17.822215 H          1 MOL1         0.3769
     106    C31     21.429310   13.781031   21.996621 C.3        1 MOL1         0.2972
     107    H51     21.042965   12.758988   22.094795 H          1 MOL1         0.0751
     108    O26     20.363388   14.746867   21.876950 O.3        1 MOL1        -0.3740
     109    C32     22.294969   14.134054   23.232331 C.3        1 MOL1         0.1003
     110    H52     23.116963   13.407783   23.276161 H          1 MOL1         0.0783
     111    O27     21.527233   14.054953   24.441413 O.3        1 MOL1        -0.5519
     112    H53     22.109112   14.444760   25.131762 H          1 MOL1         0.3769
     113    C33     22.912179   15.543658   23.095197 C.3        1 MOL1         0.1053
     114    H54     22.095993   16.269741   23.168505 H          1 MOL1         0.0783
     115    O28     23.860362   15.768644   24.145645 O.3        1 MOL1        -0.5519
     116    H55     24.382331   16.564153   23.882110 H          1 MOL1         0.3769
     117    C34     23.611227   15.746957   21.730416 C.3        1 MOL1         0.1018
     118    H56     24.581253   15.232893   21.759975 H          1 MOL1         0.0783
     119    C35     22.764109   15.223131   20.534095 C.3        1 MOL1         0.1043
     120    H57     21.920178   15.908821   20.378850 H          1 MOL1         0.0783
     121    O29     22.268063   13.892707   20.828489 O.3        1 MOL1        -0.3740
     122    C36     23.546670   15.131323   19.204820 C.3        1 MOL1         0.0138
     123    H58     23.826208   16.140040   18.877943 H          1 MOL1         0.0794
     124    H59     22.883674   14.714911   18.434535 H          1 MOL1         0.0794
     125    O30     24.713977   14.316576   19.346717 O.3        1 MOL1        -0.5486
     126    H60     24.400045   13.438634   19.658234 H          1 MOL1         0.3769
     127    C1      21.206194   19.088083   23.445854 C.3        1 MOL1        -0.1684
     128    H1      21.212421   19.848587   22.654000 H          1 MOL1         0.0833
     129    H2      22.150068   18.543340   23.340998 H          1 MOL1         0.0833
     130    C2      20.064963   18.076851   23.174558 C.3        1 MOL1        -0.1684
     131    H3      20.291334   17.586928   22.217628 H          1 MOL1         0.0833
     132    H4      20.068909   17.270891   23.919257 H          1 MOL1         0.0833
     133    C3      18.664160   18.717187   23.046126 C.3        1 MOL1        -0.1684
     134    H5      18.141167   18.224617   22.220372 H          1 MOL1         0.0833
     135    H6      18.759957   19.756792   22.721753 H          1 MOL1         0.0833
     136    C4      17.759874   18.600798   24.302680 C.3        1 MOL1        -0.1760
     137    H7      16.927029   19.309142   24.213956 H          1 MOL1         0.0833
     138    H8      17.307254   17.600804   24.295912 H          1 MOL1         0.0833
     139    C5      18.429239   18.790867   25.682329 C.3        1 MOL1         0.1219
     140    H9      19.271125   18.094235   25.775190 H          1 MOL1         0.0790
     141    C6      18.917904   20.225860   25.981498 C.3        1 MOL1        -0.1760
     142    H10     18.064739   20.915032   25.928359 H          1 MOL1         0.0833
     143    H11     19.268278   20.253985   27.021187 H          1 MOL1         0.0833
     144    C7      20.057680   20.771416   25.086851 C.3        1 MOL1        -0.1684
     145    H12     20.462197   21.663681   25.583254 H          1 MOL1         0.0833
     146    H13     19.651635   21.139711   24.139539 H          1 MOL1         0.0833
     147    C8      21.225508   19.783355   24.832134 C.3        1 MOL1        -0.1684
     148    H14     21.295536   19.039552   25.636097 H          1 MOL1         0.0833
     149    H15     22.161264   20.356622   24.888044 H          1 MOL1         0.0833
     150    O1      17.465551   18.455108   26.673114 O.3        1 MOL1        -0.5508
     151    H16     17.912636   18.538946   27.539184 H          1 MOL1         0.3780
@<TRIPOS>BOND
    1     1     2    1
    2     1     3    1
    3     1     4    1
    4     4     5    1
    5     4     6    1
    6     6     7    1
    7     4     8    1
    8     8     9    1
    9     8    10    1
   10    10    11    1
   11     8    12    1
   12    12    13    1
   13    12    14    1
   14    14    15    1
   15     1    16    1
   16    14    16    1
   17    14    17    1
   18    17    18    1
   19    17    19    1
   20    17    20    1
   21    20    21    1
   22    22    23    1
   23    22    24    1
   24    22    25    1
   25    25    26    1
   26    25    27    1
   27    27    28    1
   28    25    29    1
   29    29    30    1
   30    29    31    1
   31    31    32    1
   32     3    33    1
   33    29    33    1
   34    33    34    1
   35    33    35    1
   36    35    36    1
   37    22    37    1
   38    35    37    1
   39    35    38    1
   40    38    39    1
   41    38    40    1
   42    38    41    1
   43    41    42    1
   44    43    44    1
   45    43    45    1
   46    43    46    1
   47    46    47    1
   48    46    48    1
   49    48    49    1
   50    46    50    1
   51    50    51    1
   52    50    52    1
   53    52    53    1
   54    24    54    1
   55    50    54    1
   56    54    55    1
   57    54    56    1
   58    56    57    1
   59    43    58    1
   60    56    58    1
   61    56    59    1
   62    59    60    1
   63    59    61    1
   64    59    62    1
   65    62    63    1
   66    64    65    1
   67    64    66    1
   68    64    67    1
   69    67    68    1
   70    67    69    1
   71    69    70    1
   72    67    71    1
   73    71    72    1
   74    71    73    1
   75    73    74    1
   76    45    75    1
   77    71    75    1
   78    75    76    1
   79    75    77    1
   80    77    78    1
   81    64    79    1
   82    77    79    1
   83    77    80    1
   84    80    81    1
   85    80    82    1
   86    80    83    1
   87    83    84    1
   88    85    86    1
   89    85    87    1
   90    85    88    1
   91    88    89    1
   92    88    90    1
   93    90    91    1
   94    88    92    1
   95    92    93    1
   96    92    94    1
   97    94    95    1
   98    66    96    1
   99    92    96    1
  100    96    97    1
  101    96    98    1
  102    98    99    1
  103    85   100    1
  104    98   100    1
  105    98   101    1
  106   101   102    1
  107   101   103    1
  108   101   104    1
  109   104   105    1
  110   106   107    1
  111    12   108    1
  112   106   108    1
  113   106   109    1
  114   109   110    1
  115   109   111    1
  116   111   112    1
  117   109   113    1
  118   113   114    1
  119   113   115    1
  120   115   116    1
  121    87   117    1
  122   113   117    1
  123   117   118    1
  124   117   119    1
  125   119   120    1
  126   106   121    1
  127   119   121    1
  128   119   122    1
  129   122   123    1
  130   122   124    1
  131   122   125    1
  132   125   126    1
  133   127   128    1
  134   127   129    1
  135   127   130    1
  136   130   131    1
  137   130   132    1
  138   130   133    1
  139   133   134    1
  140   133   135    1
  141   133   136    1
  142   136   137    1
  143   136   138    1
  144   136   139    1
  145   139   140    1
  146   139   141    1
  147   141   142    1
  148   141   143    1
  149   141   144    1
  150   144   145    1
  151   144   146    1
  152   127   147    1
  153   144   147    1
  154   147   148    1
  155   147   149    1
  156   139   150    1
  157   150   151    1
@<TRIPOS>SUBSTRUCTURE
       1 MOL1            1 RESIDUE      1      MOL     
       2 MOL1          151 RESIDUE      1      MOL     
@<SCITEGIC>MOL_PROPERTY
VM2 Rank
SciTegic.value.IntegerValue
1

@<SCITEGIC>MOL_PROPERTY
Conf_Id
SciTegic.value.IntegerValue
27881

@<SCITEGIC>MOL_PROPERTY
Probability
SciTegic.value.DoubleValue
5.44

@<SCITEGIC>MOL_PROPERTY
Sum Probability
SciTegic.value.DoubleValue
5.44

@<SCITEGIC>MOL_PROPERTY
Delta G
SciTegic.value.DoubleValue
0.000

@<SCITEGIC>MOL_PROPERTY
G
SciTegic.value.DoubleValue
577.818

@<SCITEGIC>MOL_PROPERTY
E
SciTegic.value.DoubleValue
377.677

@<SCITEGIC>MOL_PROPERTY
-TS
SciTegic.value.DoubleValue
200.141

@<SCITEGIC>MOL_PROPERTY
U+W
SciTegic.value.DoubleValue
244.435

@<SCITEGIC>MOL_PROPERTY
U
SciTegic.value.DoubleValue
279.008

@<SCITEGIC>MOL_PROPERTY
W
SciTegic.value.DoubleValue
-34.573

@<SCITEGIC>MOL_PROPERTY
W(PB)
SciTegic.value.DoubleValue
-40.715

@<SCITEGIC>MOL_PROPERTY
W(SA)
SciTegic.value.DoubleValue
6.142

@<SCITEGIC>MOL_PROPERTY
Valence
SciTegic.value.DoubleValue
160.106

@<SCITEGIC>MOL_PROPERTY
Coulomb
SciTegic.value.DoubleValue
144.965

@<SCITEGIC>MOL_PROPERTY
VdW
SciTegic.value.DoubleValue
-26.063

@<SCITEGIC>MOL_PROPERTY
VdW6
SciTegic.value.DoubleValue
-177.389

@<SCITEGIC>MOL_PROPERTY
VdW12
SciTegic.value.DoubleValue
151.326

@<SCITEGIC>MOL_PROPERTY
Bond
SciTegic.value.DoubleValue
4.274

@<SCITEGIC>MOL_PROPERTY
Angle
SciTegic.value.DoubleValue
13.395

@<SCITEGIC>MOL_PROPERTY
Pdih
SciTegic.value.DoubleValue
142.437

@<SCITEGIC>MOL_PROPERTY
Idih
SciTegic.value.DoubleValue
0.000

@<SCITEGIC>MOL_PROPERTY
Tether
SciTegic.value.DoubleValue
0.000

