@<TRIPOS>MOLECULE
CD_guest-s15_vm2_rndm.mol2 : vm2 host+ligand conformer 1
         155         160           2
SMALL
USER_CHARGES
 
@<TRIPOS>ATOM
       1    C1      16.348826   15.098812   21.101861 C.3        1 MOL1         0.2972
       2    H1      15.297336   14.914388   20.848938 H          1 MOL1         0.0751
       3    O1      16.602571   16.492448   21.376371 O.3        1 MOL1        -0.3740
       4    C2      16.756957   14.270762   22.346989 C.3        1 MOL1         0.1003
       5    H2      16.625401   13.210954   22.092765 H          1 MOL1         0.0783
       6    O2      15.931187   14.583851   23.478617 O.3        1 MOL1        -0.5519
       7    H3      15.771941   15.561997   23.470148 H          1 MOL1         0.3769
       8    C3      18.249695   14.494682   22.683643 C.3        1 MOL1         0.1053
       9    H4      18.375962   15.540767   22.993268 H          1 MOL1         0.0783
      10    O3      18.634317   13.625280   23.753193 O.3        1 MOL1        -0.5519
      11    H5      17.884160   13.661211   24.389193 H          1 MOL1         0.3769
      12    C4      19.142607   14.246907   21.441203 C.3        1 MOL1         0.1018
      13    H6      19.200684   13.170167   21.232452 H          1 MOL1         0.0783
      14    C5      18.614903   14.971603   20.174883 C.3        1 MOL1         0.1043
      15    H7      18.779978   16.047548   20.294897 H          1 MOL1         0.0783
      16    O4      17.202305   14.689888   20.013921 O.3        1 MOL1        -0.3740
      17    C6      19.343885   14.501570   18.896199 C.3        1 MOL1         0.0138
      18    H8      18.949348   13.520026   18.601141 H          1 MOL1         0.0794
      19    H9      20.411062   14.372228   19.116106 H          1 MOL1         0.0794
      20    O5      19.187611   15.447837   17.833484 O.3        1 MOL1        -0.5486
      21    H10     19.575272   15.038360   17.029604 H          1 MOL1         0.3769
      22    C7      14.708136   20.229275   21.182394 C.3        1 MOL1         0.2972
      23    H11     13.950863   21.012769   21.054135 H          1 MOL1         0.0751
      24    O6      16.025240   20.780381   21.376263 O.3        1 MOL1        -0.3740
      25    C8      14.370439   19.357625   22.418449 C.3        1 MOL1         0.1003
      26    H12     13.376109   18.923719   22.250651 H          1 MOL1         0.0783
      27    O7      14.337988   20.148947   23.616908 O.3        1 MOL1        -0.5519
      28    H13     15.022505   20.858712   23.523921 H          1 MOL1         0.3769
      29    C9      15.376815   18.190644   22.563835 C.3        1 MOL1         0.1053
      30    H14     16.363980   18.611099   22.800452 H          1 MOL1         0.0783
      31    O8      14.946079   17.332386   23.623526 O.3        1 MOL1        -0.5519
      32    H15     14.694087   17.941030   24.354025 H          1 MOL1         0.3769
      33    C10     15.487296   17.394383   21.239345 C.3        1 MOL1         0.1018
      34    H16     14.543888   16.858514   21.070711 H          1 MOL1         0.0783
      35    C11     15.763159   18.338662   20.038354 C.3        1 MOL1         0.1043
      36    H17     16.758206   18.785454   20.157281 H          1 MOL1         0.0783
      37    O9      14.744905   19.370422   20.022522 O.3        1 MOL1        -0.3740
      38    C12     15.714868   17.617321   18.675085 C.3        1 MOL1         0.0138
      39    H18     14.721555   17.171110   18.534022 H          1 MOL1         0.0794
      40    H19     16.452205   16.803879   18.666646 H          1 MOL1         0.0794
      41    O10     16.003101   18.543941   17.624670 O.3        1 MOL1        -0.5486
      42    H20     15.374265   19.289672   17.741778 H          1 MOL1         0.3769
      43    C13     18.328343   24.181377   21.113154 C.3        1 MOL1         0.2972
      44    H21     18.762429   25.180249   20.975659 H          1 MOL1         0.0751
      45    O11     19.350131   23.167080   21.223646 O.3        1 MOL1        -0.3740
      46    C14     17.406151   24.132154   22.359181 C.3        1 MOL1         0.1003
      47    H22     16.564355   24.809490   22.164700 H          1 MOL1         0.0783
      48    O12     18.078575   24.566828   23.549576 O.3        1 MOL1        -0.5519
      49    H23     18.815332   23.926411   23.715814 H          1 MOL1         0.3769
      50    C15     16.836758   22.704518   22.535999 C.3        1 MOL1         0.1053
      51    H24     17.670786   22.027625   22.768113 H          1 MOL1         0.0783
      52    O13     15.893654   22.694018   23.611622 O.3        1 MOL1        -0.5519
      53    H25     16.317329   23.213508   24.330997 H          1 MOL1         0.3769
      54    C16     16.153091   22.208364   21.235810 C.3        1 MOL1         0.1018
      55    H26     15.178730   22.706185   21.143453 H          1 MOL1         0.0783
      56    C17     16.992945   22.485520   19.956588 C.3        1 MOL1         0.1043
      57    H27     17.827240   21.776732   19.922063 H          1 MOL1         0.0783
      58    O14     17.498342   23.844432   19.982326 O.3        1 MOL1        -0.3740
      59    C18     16.172453   22.322329   18.660881 C.3        1 MOL1         0.0138
      60    H28     15.356528   23.057202   18.651544 H          1 MOL1         0.0794
      61    H29     15.724112   21.321996   18.637845 H          1 MOL1         0.0794
      62    O15     17.018680   22.497098   17.523428 O.3        1 MOL1        -0.5486
      63    H30     17.488499   23.348435   17.663471 H          1 MOL1         0.3769
      64    C19     23.369953   22.538861   21.968049 C.3        1 MOL1         0.2972
      65    H31     24.431257   22.624944   22.232083 H          1 MOL1         0.0751
      66    O16     23.089153   21.304824   21.275571 O.3        1 MOL1        -0.3740
      67    C20     22.486233   22.605961   23.240224 C.3        1 MOL1         0.1003
      68    H32     22.675354   23.577003   23.716165 H          1 MOL1         0.0783
      69    O17     22.805186   21.555091   24.166960 O.3        1 MOL1        -0.5519
      70    H33     23.726297   21.262146   23.966039 H          1 MOL1         0.3769
      71    C21     20.989198   22.532164   22.865583 C.3        1 MOL1         0.1053
      72    H34     20.797104   21.536068   22.453551 H          1 MOL1         0.0783
      73    O18     20.208755   22.718886   24.048723 O.3        1 MOL1        -0.5519
      74    H35     20.653896   22.158964   24.724662 H          1 MOL1         0.3769
      75    C22     20.613841   23.574851   21.782172 C.3        1 MOL1         0.1018
      76    H36     20.558115   24.567340   22.248932 H          1 MOL1         0.0783
      77    C23     21.629252   23.594868   20.605170 C.3        1 MOL1         0.1043
      78    H37     21.487361   22.681218   20.012584 H          1 MOL1         0.0783
      79    O19     22.985725   23.636115   21.112316 O.3        1 MOL1        -0.3740
      80    C24     21.441105   24.799845   19.656763 C.3        1 MOL1         0.0138
      81    H38     20.457787   24.724443   19.173678 H          1 MOL1         0.0794
      82    H39     22.199250   24.747686   18.863913 H          1 MOL1         0.0794
      83    O20     21.547816   26.037798   20.365683 O.3        1 MOL1        -0.5486
      84    H40     22.433261   26.035446   20.792903 H          1 MOL1         0.3769
      85    C25     24.943393   17.631151   20.690246 C.3        1 MOL1         0.2972
      86    H41     25.597973   16.801024   20.394501 H          1 MOL1         0.0751
      87    O21     23.664597   17.161561   21.159582 O.3        1 MOL1        -0.3740
      88    C26     25.596004   18.495614   21.798392 C.3        1 MOL1         0.1003
      89    H42     26.513815   18.923398   21.374248 H          1 MOL1         0.0783
      90    O22     25.941453   17.715318   22.953021 O.3        1 MOL1        -0.5519
      91    H43     25.108897   17.292265   23.284116 H          1 MOL1         0.3769
      92    C27     24.663524   19.667755   22.191473 C.3        1 MOL1         0.1053
      93    H44     23.763579   19.246865   22.661828 H          1 MOL1         0.0783
      94    O23     25.356846   20.500147   23.128224 O.3        1 MOL1        -0.5519
      95    H45     25.846077   19.873125   23.708882 H          1 MOL1         0.3769
      96    C28     24.221266   20.478071   20.936849 C.3        1 MOL1         0.1018
      97    H46     25.060588   21.087377   20.576008 H          1 MOL1         0.0783
      98    C29     23.740557   19.557928   19.781771 C.3        1 MOL1         0.1043
      99    H47     22.765709   19.131408   20.050563 H          1 MOL1         0.0783
     100    O24     24.707460   18.500762   19.563500 O.3        1 MOL1        -0.3740
     101    C30     23.579771   20.327433   18.454167 C.3        1 MOL1         0.0138
     102    H48     24.561555   20.693425   18.125463 H          1 MOL1         0.0794
     103    H49     22.934795   21.200899   18.616642 H          1 MOL1         0.0794
     104    O25     23.003415   19.475813   17.462473 O.3        1 MOL1        -0.5486
     105    H50     23.558670   18.666063   17.443877 H          1 MOL1         0.3769
     106    C31     21.450621   13.874931   22.157370 C.3        1 MOL1         0.2972
     107    H51     21.023553   12.902976   22.436526 H          1 MOL1         0.0751
     108    O26     20.434325   14.806591   21.735973 O.3        1 MOL1        -0.3740
     109    C32     22.211829   14.488059   23.356745 C.3        1 MOL1         0.1003
     110    H52     23.043790   13.813334   23.597046 H          1 MOL1         0.0783
     111    O27     21.357176   14.610485   24.505010 O.3        1 MOL1        -0.5519
     112    H53     20.444401   14.361581   24.216951 H          1 MOL1         0.3769
     113    C33     22.804328   15.864511   22.976821 C.3        1 MOL1         0.1053
     114    H54     21.970633   16.561272   22.839535 H          1 MOL1         0.0783
     115    O28     23.635337   16.329172   24.043909 O.3        1 MOL1        -0.5519
     116    H55     23.107043   16.170541   24.858330 H          1 MOL1         0.3769
     117    C34     23.610701   15.810016   21.652396 C.3        1 MOL1         0.1018
     118    H56     24.610063   15.408291   21.866883 H          1 MOL1         0.0783
     119    C35     22.922042   14.967716   20.539237 C.3        1 MOL1         0.1043
     120    H57     22.097613   15.563883   20.125914 H          1 MOL1         0.0783
     121    O29     22.398017   13.728367   21.079820 O.3        1 MOL1        -0.3740
     122    C36     23.863142   14.611715   19.367159 C.3        1 MOL1         0.0138
     123    H58     24.173793   15.536561   18.863342 H          1 MOL1         0.0794
     124    H59     23.304477   14.013819   18.634666 H          1 MOL1         0.0794
     125    O30     25.009966   13.890272   19.825720 O.3        1 MOL1        -0.5486
     126    H60     24.667726   13.091667   20.285823 H          1 MOL1         0.3769
     127    C1      19.534118   17.984808   24.439468 C.3        1 MOL1        -0.2426
     128    H1      20.195979   17.112895   24.372398 H          1 MOL1         0.0959
     129    H2      19.686426   18.447660   25.422823 H          1 MOL1         0.0959
     130    H3      18.495865   17.631225   24.390529 H          1 MOL1         0.0959
     131    C2      19.829015   18.995795   23.312323 C.3        1 MOL1        -0.1410
     132    H4      20.857266   19.370707   23.415869 H          1 MOL1         0.0948
     133    H5      19.159259   19.860638   23.420286 H          1 MOL1         0.0948
     134    C3      19.644164   18.361917   21.917757 C.3        1 MOL1        -0.1435
     135    H6      20.384124   17.567386   21.767602 H          1 MOL1         0.0948
     136    H7      18.657938   17.888350   21.867246 H          1 MOL1         0.0948
     137    C4      19.762823   19.397180   20.781946 C.3        1 MOL1        -0.1435
     138    H8      20.711237   19.941780   20.868780 H          1 MOL1         0.0948
     139    H9      18.958724   20.135732   20.889858 H          1 MOL1         0.0948
     140    C5      19.687819   18.728901   19.392081 C.3        1 MOL1        -0.1435
     141    H10     20.572302   18.093480   19.242866 H          1 MOL1         0.0948
     142    H11     18.811643   18.070878   19.348450 H          1 MOL1         0.0948
     143    C6      19.594937   19.773443   18.257466 C.3        1 MOL1        -0.1500
     144    H12     20.396869   20.513545   18.377879 H          1 MOL1         0.0948
     145    H13     18.645340   20.317089   18.339293 H          1 MOL1         0.0948
     146    C7      19.703588   19.149188   16.851248 C.3        1 MOL1         0.1162
     147    H14     20.688499   18.680890   16.757515 H          1 MOL1         0.0910
     148    C8      19.586514   20.244402   15.780534 C.3        1 MOL1        -0.2491
     149    H15     20.368994   21.001472   15.915547 H          1 MOL1         0.0959
     150    H16     18.611118   20.745327   15.832769 H          1 MOL1         0.0959
     151    H17     19.701881   19.819728   14.776156 H          1 MOL1         0.0959
     152    N1      18.685845   18.066352   16.617908 N.4        1 MOL1        -0.5987
     153    H18     18.697573   17.735182   15.651012 H          1 MOL1         0.3605
     154    H19     18.856931   17.249785   17.224878 H          1 MOL1         0.3605
     155    H20     17.728898   18.392063   16.829302 H          1 MOL1         0.3605
@<TRIPOS>BOND
    1     1     2    1
    2     1     3    1
    3     1     4    1
    4     4     5    1
    5     4     6    1
    6     6     7    1
    7     4     8    1
    8     8     9    1
    9     8    10    1
   10    10    11    1
   11     8    12    1
   12    12    13    1
   13    12    14    1
   14    14    15    1
   15     1    16    1
   16    14    16    1
   17    14    17    1
   18    17    18    1
   19    17    19    1
   20    17    20    1
   21    20    21    1
   22    22    23    1
   23    22    24    1
   24    22    25    1
   25    25    26    1
   26    25    27    1
   27    27    28    1
   28    25    29    1
   29    29    30    1
   30    29    31    1
   31    31    32    1
   32     3    33    1
   33    29    33    1
   34    33    34    1
   35    33    35    1
   36    35    36    1
   37    22    37    1
   38    35    37    1
   39    35    38    1
   40    38    39    1
   41    38    40    1
   42    38    41    1
   43    41    42    1
   44    43    44    1
   45    43    45    1
   46    43    46    1
   47    46    47    1
   48    46    48    1
   49    48    49    1
   50    46    50    1
   51    50    51    1
   52    50    52    1
   53    52    53    1
   54    24    54    1
   55    50    54    1
   56    54    55    1
   57    54    56    1
   58    56    57    1
   59    43    58    1
   60    56    58    1
   61    56    59    1
   62    59    60    1
   63    59    61    1
   64    59    62    1
   65    62    63    1
   66    64    65    1
   67    64    66    1
   68    64    67    1
   69    67    68    1
   70    67    69    1
   71    69    70    1
   72    67    71    1
   73    71    72    1
   74    71    73    1
   75    73    74    1
   76    45    75    1
   77    71    75    1
   78    75    76    1
   79    75    77    1
   80    77    78    1
   81    64    79    1
   82    77    79    1
   83    77    80    1
   84    80    81    1
   85    80    82    1
   86    80    83    1
   87    83    84    1
   88    85    86    1
   89    85    87    1
   90    85    88    1
   91    88    89    1
   92    88    90    1
   93    90    91    1
   94    88    92    1
   95    92    93    1
   96    92    94    1
   97    94    95    1
   98    66    96    1
   99    92    96    1
  100    96    97    1
  101    96    98    1
  102    98    99    1
  103    85   100    1
  104    98   100    1
  105    98   101    1
  106   101   102    1
  107   101   103    1
  108   101   104    1
  109   104   105    1
  110   106   107    1
  111    12   108    1
  112   106   108    1
  113   106   109    1
  114   109   110    1
  115   109   111    1
  116   111   112    1
  117   109   113    1
  118   113   114    1
  119   113   115    1
  120   115   116    1
  121    87   117    1
  122   113   117    1
  123   117   118    1
  124   117   119    1
  125   119   120    1
  126   106   121    1
  127   119   121    1
  128   119   122    1
  129   122   123    1
  130   122   124    1
  131   122   125    1
  132   125   126    1
  133   127   128    1
  134   127   129    1
  135   127   130    1
  136   127   131    1
  137   131   132    1
  138   131   133    1
  139   131   134    1
  140   134   135    1
  141   134   136    1
  142   134   137    1
  143   137   138    1
  144   137   139    1
  145   137   140    1
  146   140   141    1
  147   140   142    1
  148   140   143    1
  149   143   144    1
  150   143   145    1
  151   143   146    1
  152   146   147    1
  153   146   148    1
  154   148   149    1
  155   148   150    1
  156   148   151    1
  157   146   152    1
  158   152   153    1
  159   152   154    1
  160   152   155    1
@<TRIPOS>SUBSTRUCTURE
       1 MOL1            1 RESIDUE      1      MOL     
       2 MOL1          155 RESIDUE      1      MOL     
@<SCITEGIC>MOL_PROPERTY
VM2 Rank
SciTegic.value.IntegerValue
1

@<SCITEGIC>MOL_PROPERTY
Conf_Id
SciTegic.value.IntegerValue
22793

@<SCITEGIC>MOL_PROPERTY
Probability
SciTegic.value.DoubleValue
3.04

@<SCITEGIC>MOL_PROPERTY
Sum Probability
SciTegic.value.DoubleValue
3.04

@<SCITEGIC>MOL_PROPERTY
Delta G
SciTegic.value.DoubleValue
0.000

@<SCITEGIC>MOL_PROPERTY
G
SciTegic.value.DoubleValue
550.682

@<SCITEGIC>MOL_PROPERTY
E
SciTegic.value.DoubleValue
340.875

@<SCITEGIC>MOL_PROPERTY
-TS
SciTegic.value.DoubleValue
209.807

@<SCITEGIC>MOL_PROPERTY
U+W
SciTegic.value.DoubleValue
204.056

@<SCITEGIC>MOL_PROPERTY
U
SciTegic.value.DoubleValue
266.469

@<SCITEGIC>MOL_PROPERTY
W
SciTegic.value.DoubleValue
-62.413

@<SCITEGIC>MOL_PROPERTY
W(PB)
SciTegic.value.DoubleValue
-68.464

@<SCITEGIC>MOL_PROPERTY
W(SA)
SciTegic.value.DoubleValue
6.051

@<SCITEGIC>MOL_PROPERTY
Valence
SciTegic.value.DoubleValue
149.220

@<SCITEGIC>MOL_PROPERTY
Coulomb
SciTegic.value.DoubleValue
144.816

@<SCITEGIC>MOL_PROPERTY
VdW
SciTegic.value.DoubleValue
-27.567

@<SCITEGIC>MOL_PROPERTY
VdW6
SciTegic.value.DoubleValue
-185.353

@<SCITEGIC>MOL_PROPERTY
VdW12
SciTegic.value.DoubleValue
157.786

@<SCITEGIC>MOL_PROPERTY
Bond
SciTegic.value.DoubleValue
4.276

@<SCITEGIC>MOL_PROPERTY
Angle
SciTegic.value.DoubleValue
9.874

@<SCITEGIC>MOL_PROPERTY
Pdih
SciTegic.value.DoubleValue
135.070

@<SCITEGIC>MOL_PROPERTY
Idih
SciTegic.value.DoubleValue
0.000

@<SCITEGIC>MOL_PROPERTY
Tether
SciTegic.value.DoubleValue
0.000

