@<TRIPOS>MOLECULE
CD_guest-s20_vm2_rndm.mol2 : vm2 host+ligand conformer 1
         143         148           2
SMALL
USER_CHARGES
 
@<TRIPOS>ATOM
       1    C1      16.400957   15.307754   20.390806 C.3        1 MOL1         0.2972
       2    H1      15.388284   15.197288   19.981726 H          1 MOL1         0.0751
       3    O1      16.596816   16.609157   20.978405 O.3        1 MOL1        -0.3740
       4    C2      16.669953   14.237253   21.480563 C.3        1 MOL1         0.1003
       5    H2      16.544737   13.252800   21.012067 H          1 MOL1         0.0783
       6    O2      15.715938   14.373821   22.547384 O.3        1 MOL1        -0.5519
       7    H3      15.751153   15.313511   22.856395 H          1 MOL1         0.3769
       8    C3      18.129790   14.330247   22.004838 C.3        1 MOL1         0.1053
       9    H4      18.224580   15.263335   22.576144 H          1 MOL1         0.0783
      10    O3      18.432991   13.213562   22.850483 O.3        1 MOL1        -0.5519
      11    H5      19.291176   13.423908   23.294858 H          1 MOL1         0.3769
      12    C4      19.151966   14.369888   20.836564 C.3        1 MOL1         0.1018
      13    H6      19.243324   13.368028   20.396228 H          1 MOL1         0.0783
      14    C5      18.749777   15.366281   19.719887 C.3        1 MOL1         0.1043
      15    H7      18.872943   16.386118   20.103600 H          1 MOL1         0.0783
      16    O4      17.372359   15.140226   19.339673 O.3        1 MOL1        -0.3740
      17    C6      19.610812   15.228329   18.444581 C.3        1 MOL1         0.0138
      18    H8      20.664391   15.396754   18.700039 H          1 MOL1         0.0794
      19    H9      19.315364   16.012332   17.734667 H          1 MOL1         0.0794
      20    O5      19.449201   13.936061   17.852495 O.3        1 MOL1        -0.5486
      21    H10     18.480938   13.811398   17.736261 H          1 MOL1         0.3769
      22    C7      14.694400   20.256259   21.430242 C.3        1 MOL1         0.2972
      23    H11     13.997823   21.102336   21.492439 H          1 MOL1         0.0751
      24    O6      16.069117   20.695513   21.411504 O.3        1 MOL1        -0.3740
      25    C8      14.487770   19.267478   22.607237 C.3        1 MOL1         0.1003
      26    H12     13.482817   18.839839   22.495955 H          1 MOL1         0.0783
      27    O7      14.563992   19.921035   23.881557 O.3        1 MOL1        -0.5519
      28    H13     15.441157   20.379071   23.924961 H          1 MOL1         0.3769
      29    C9      15.506383   18.105399   22.509357 C.3        1 MOL1         0.1053
      30    H14     16.518744   18.515088   22.633171 H          1 MOL1         0.0783
      31    O8      15.237886   17.147906   23.539412 O.3        1 MOL1        -0.5519
      32    H15     15.106653   17.681495   24.354482 H          1 MOL1         0.3769
      33    C10     15.415399   17.420131   21.122307 C.3        1 MOL1         0.1018
      34    H16     14.502103   16.810497   21.107071 H          1 MOL1         0.0783
      35    C11     15.390373   18.437523   19.942938 C.3        1 MOL1         0.1043
      36    H17     16.396375   18.858748   19.826074 H          1 MOL1         0.0783
      37    O9      14.452204   19.507919   20.219858 O.3        1 MOL1        -0.3740
      38    C12     14.989683   17.806821   18.590398 C.3        1 MOL1         0.0138
      39    H18     15.755944   17.080030   18.290903 H          1 MOL1         0.0794
      40    H19     14.973467   18.594540   17.825369 H          1 MOL1         0.0794
      41    O10     13.710735   17.170918   18.674585 O.3        1 MOL1        -0.5486
      42    H20     13.076705   17.865427   18.961000 H          1 MOL1         0.3769
      43    C13     18.569043   23.949320   21.859276 C.3        1 MOL1         0.2972
      44    H21     19.032675   24.925512   22.047366 H          1 MOL1         0.0751
      45    O11     19.447826   23.075105   21.116221 O.3        1 MOL1        -0.3740
      46    C14     18.183727   23.262993   23.195894 C.3        1 MOL1         0.1003
      47    H22     17.440497   23.902916   23.688605 H          1 MOL1         0.0783
      48    O12     19.332282   23.147249   24.052957 O.3        1 MOL1        -0.5519
      49    H23     19.323630   22.240843   24.460517 H          1 MOL1         0.3769
      50    C15     17.513508   21.890994   22.925782 C.3        1 MOL1         0.1053
      51    H24     18.264511   21.223342   22.489925 H          1 MOL1         0.0783
      52    O13     17.021819   21.337885   24.151295 O.3        1 MOL1        -0.5519
      53    H25     17.818106   20.985444   24.629992 H          1 MOL1         0.3769
      54    C16     16.343011   22.018383   21.915377 C.3        1 MOL1         0.1018
      55    H26     15.476559   22.445570   22.437489 H          1 MOL1         0.0783
      56    C17     16.702506   22.892878   20.681212 C.3        1 MOL1         0.1043
      57    H27     17.383306   22.318117   20.039220 H          1 MOL1         0.0783
      58    O14     17.352583   24.117944   21.100583 O.3        1 MOL1        -0.3740
      59    C18     15.471978   23.277952   19.830044 C.3        1 MOL1         0.0138
      60    H28     15.021079   22.364702   19.419218 H          1 MOL1         0.0794
      61    H29     15.807339   23.887946   18.980595 H          1 MOL1         0.0794
      62    O15     14.509504   23.996014   20.607926 O.3        1 MOL1        -0.5486
      63    H30     14.981664   24.775657   20.976639 H          1 MOL1         0.3769
      64    C19     23.476011   22.612795   20.280790 C.3        1 MOL1         0.2972
      65    H31     24.513110   22.678679   19.927693 H          1 MOL1         0.0751
      66    O16     23.170763   21.282402   20.757460 O.3        1 MOL1        -0.3740
      67    C20     23.194122   23.671520   21.380787 C.3        1 MOL1         0.1003
      68    H32     23.314557   24.656905   20.912783 H          1 MOL1         0.0783
      69    O17     24.133365   23.567052   22.461359 O.3        1 MOL1        -0.5519
      70    H33     23.867608   22.769797   22.983602 H          1 MOL1         0.3769
      71    C21     21.726386   23.565653   21.876040 C.3        1 MOL1         0.1053
      72    H34     21.606547   22.599693   22.385458 H          1 MOL1         0.0783
      73    O18     21.447529   24.633361   22.789143 O.3        1 MOL1        -0.5519
      74    H35     20.760619   24.277900   23.404900 H          1 MOL1         0.3769
      75    C22     20.720344   23.609607   20.687473 C.3        1 MOL1         0.1018
      76    H36     20.613954   24.643970   20.335093 H          1 MOL1         0.0783
      77    C23     21.163669   22.715428   19.495797 C.3        1 MOL1         0.1043
      78    H37     20.987706   21.669882   19.773315 H          1 MOL1         0.0783
      79    O19     22.569919   22.905759   19.197740 O.3        1 MOL1        -0.3740
      80    C24     20.365308   22.995087   18.203636 C.3        1 MOL1         0.0138
      81    H38     19.296911   22.834884   18.400713 H          1 MOL1         0.0794
      82    H39     20.671315   22.270338   17.437428 H          1 MOL1         0.0794
      83    O20     20.588129   24.330483   17.740769 O.3        1 MOL1        -0.5486
      84    H40     21.563391   24.433048   17.668879 H          1 MOL1         0.3769
      85    C25     24.867685   17.851292   22.389608 C.3        1 MOL1         0.2972
      86    H41     25.529000   17.108155   22.852616 H          1 MOL1         0.0751
      87    O21     23.665250   17.245308   21.871563 O.3        1 MOL1        -0.3740
      88    C26     24.482657   18.943054   23.421305 C.3        1 MOL1         0.1003
      89    H42     25.411246   19.438094   23.733355 H          1 MOL1         0.0783
      90    O22     23.866532   18.349971   24.574967 O.3        1 MOL1        -0.5519
      91    H43     23.086055   18.914243   24.820206 H          1 MOL1         0.3769
      92    C27     23.575146   20.019005   22.771814 C.3        1 MOL1         0.1053
      93    H44     22.616092   19.550695   22.512641 H          1 MOL1         0.0783
      94    O23     23.366240   21.093650   23.696788 O.3        1 MOL1        -0.5519
      95    H45     22.660432   20.782020   24.323426 H          1 MOL1         0.3769
      96    C28     24.208605   20.574561   21.469178 C.3        1 MOL1         0.1018
      97    H46     25.043371   21.234802   21.737583 H          1 MOL1         0.0783
      98    C29     24.724410   19.443852   20.535805 C.3        1 MOL1         0.1043
      99    H47     23.856115   18.921676   20.112839 H          1 MOL1         0.0783
     100    O24     25.536570   18.508992   21.291167 O.3        1 MOL1        -0.3740
     101    C30     25.576357   19.963012   19.356270 C.3        1 MOL1         0.0138
     102    H48     24.947948   20.590891   18.710715 H          1 MOL1         0.0794
     103    H49     25.907058   19.105093   18.755680 H          1 MOL1         0.0794
     104    O25     26.705611   20.708295   19.820828 O.3        1 MOL1        -0.5486
     105    H50     27.201613   20.108858   20.421835 H          1 MOL1         0.3769
     106    C31     21.410206   13.824262   21.600080 C.3        1 MOL1         0.2972
     107    H51     20.995201   12.811052   21.526370 H          1 MOL1         0.0751
     108    O26     20.403345   14.832752   21.377516 O.3        1 MOL1        -0.3740
     109    C32     22.035437   14.039584   22.997739 C.3        1 MOL1         0.1003
     110    H52     22.858834   13.320896   23.101391 H          1 MOL1         0.0783
     111    O27     21.076872   13.807903   24.039448 O.3        1 MOL1        -0.5519
     112    H53     21.515415   14.140129   24.854828 H          1 MOL1         0.3769
     113    C33     22.629294   15.461071   23.126247 C.3        1 MOL1         0.1053
     114    H54     21.797065   16.178456   23.121060 H          1 MOL1         0.0783
     115    O28     23.343880   15.545642   24.364108 O.3        1 MOL1        -0.5519
     116    H55     23.551561   16.503000   24.501357 H          1 MOL1         0.3769
     117    C34     23.569108   15.807747   21.938458 C.3        1 MOL1         0.1018
     118    H56     24.548648   15.336846   22.094225 H          1 MOL1         0.0783
     119    C35     23.005643   15.357761   20.561952 C.3        1 MOL1         0.1043
     120    H57     22.211455   16.056603   20.277154 H          1 MOL1         0.0783
     121    O29     22.463385   14.014972   20.633544 O.3        1 MOL1        -0.3740
     122    C36     24.070212   15.379511   19.443383 C.3        1 MOL1         0.0138
     123    H58     24.479088   16.395332   19.357430 H          1 MOL1         0.0794
     124    H59     23.584121   15.136599   18.489038 H          1 MOL1         0.0794
     125    O30     25.119717   14.446458   19.716600 O.3        1 MOL1        -0.5486
     126    H60     24.680031   13.579446   19.864785 H          1 MOL1         0.3769
     127    C1      20.272035   19.607942   24.841263 C.2        1 MOL1         0.6132
     128    O1      21.460387   19.667720   25.093330 O.co2      1 MOL1        -0.6749
     129    O2      19.495825   20.521823   25.047101 O.co2      1 MOL1        -0.6749
     130    C2      19.723525   18.313243   24.248443 C.3        1 MOL1        -0.1955
     131    H1      18.792035   18.086901   24.779537 H          1 MOL1         0.0733
     132    H2      20.414234   17.498930   24.493662 H          1 MOL1         0.0733
     133    C3      19.451054   18.331280   22.750997 C.2        1 MOL1        -0.1395
     134    H3      18.861194   17.490123   22.393523 H          1 MOL1         0.0816
     135    C4      19.833659   19.278960   21.887940 C.2        1 MOL1        -0.1394
     136    H4      20.411549   20.141123   22.217896 H          1 MOL1         0.0816
     137    C5      19.460577   19.278706   20.422738 C.3        1 MOL1        -0.1826
     138    H5      18.590116   18.633465   20.258016 H          1 MOL1         0.0736
     139    H6      19.157080   20.288330   20.118002 H          1 MOL1         0.0736
     140    C6      20.627192   18.790411   19.543748 C.3        1 MOL1        -0.2882
     141    H7      20.909350   17.768982   19.818999 H          1 MOL1         0.0749
     142    H8      20.346745   18.797128   18.483047 H          1 MOL1         0.0749
     143    H9      21.509078   19.428955   19.670705 H          1 MOL1         0.0749
@<TRIPOS>BOND
    1     1     2    1
    2     1     3    1
    3     1     4    1
    4     4     5    1
    5     4     6    1
    6     6     7    1
    7     4     8    1
    8     8     9    1
    9     8    10    1
   10    10    11    1
   11     8    12    1
   12    12    13    1
   13    12    14    1
   14    14    15    1
   15     1    16    1
   16    14    16    1
   17    14    17    1
   18    17    18    1
   19    17    19    1
   20    17    20    1
   21    20    21    1
   22    22    23    1
   23    22    24    1
   24    22    25    1
   25    25    26    1
   26    25    27    1
   27    27    28    1
   28    25    29    1
   29    29    30    1
   30    29    31    1
   31    31    32    1
   32     3    33    1
   33    29    33    1
   34    33    34    1
   35    33    35    1
   36    35    36    1
   37    22    37    1
   38    35    37    1
   39    35    38    1
   40    38    39    1
   41    38    40    1
   42    38    41    1
   43    41    42    1
   44    43    44    1
   45    43    45    1
   46    43    46    1
   47    46    47    1
   48    46    48    1
   49    48    49    1
   50    46    50    1
   51    50    51    1
   52    50    52    1
   53    52    53    1
   54    24    54    1
   55    50    54    1
   56    54    55    1
   57    54    56    1
   58    56    57    1
   59    43    58    1
   60    56    58    1
   61    56    59    1
   62    59    60    1
   63    59    61    1
   64    59    62    1
   65    62    63    1
   66    64    65    1
   67    64    66    1
   68    64    67    1
   69    67    68    1
   70    67    69    1
   71    69    70    1
   72    67    71    1
   73    71    72    1
   74    71    73    1
   75    73    74    1
   76    45    75    1
   77    71    75    1
   78    75    76    1
   79    75    77    1
   80    77    78    1
   81    64    79    1
   82    77    79    1
   83    77    80    1
   84    80    81    1
   85    80    82    1
   86    80    83    1
   87    83    84    1
   88    85    86    1
   89    85    87    1
   90    85    88    1
   91    88    89    1
   92    88    90    1
   93    90    91    1
   94    88    92    1
   95    92    93    1
   96    92    94    1
   97    94    95    1
   98    66    96    1
   99    92    96    1
  100    96    97    1
  101    96    98    1
  102    98    99    1
  103    85   100    1
  104    98   100    1
  105    98   101    1
  106   101   102    1
  107   101   103    1
  108   101   104    1
  109   104   105    1
  110   106   107    1
  111    12   108    1
  112   106   108    1
  113   106   109    1
  114   109   110    1
  115   109   111    1
  116   111   112    1
  117   109   113    1
  118   113   114    1
  119   113   115    1
  120   115   116    1
  121    87   117    1
  122   113   117    1
  123   117   118    1
  124   117   119    1
  125   119   120    1
  126   106   121    1
  127   119   121    1
  128   119   122    1
  129   122   123    1
  130   122   124    1
  131   122   125    1
  132   125   126    1
  133   127   128    1
  134   127   129    2
  135   127   130    1
  136   130   131    1
  137   130   132    1
  138   130   133    1
  139   133   134    1
  140   133   135    2
  141   135   136    1
  142   135   137    1
  143   137   138    1
  144   137   139    1
  145   137   140    1
  146   140   141    1
  147   140   142    1
  148   140   143    1
@<TRIPOS>SUBSTRUCTURE
       1 MOL1            1 RESIDUE      1      MOL     
       2 MOL1          143 RESIDUE      1      MOL     
@<SCITEGIC>MOL_PROPERTY
VM2 Rank
SciTegic.value.IntegerValue
1

@<SCITEGIC>MOL_PROPERTY
Conf_Id
SciTegic.value.IntegerValue
7525

@<SCITEGIC>MOL_PROPERTY
Probability
SciTegic.value.DoubleValue
1.50

@<SCITEGIC>MOL_PROPERTY
Sum Probability
SciTegic.value.DoubleValue
1.50

@<SCITEGIC>MOL_PROPERTY
Delta G
SciTegic.value.DoubleValue
0.000

@<SCITEGIC>MOL_PROPERTY
G
SciTegic.value.DoubleValue
490.265

@<SCITEGIC>MOL_PROPERTY
E
SciTegic.value.DoubleValue
304.899

@<SCITEGIC>MOL_PROPERTY
-TS
SciTegic.value.DoubleValue
185.366

@<SCITEGIC>MOL_PROPERTY
U+W
SciTegic.value.DoubleValue
178.811

@<SCITEGIC>MOL_PROPERTY
U
SciTegic.value.DoubleValue
238.825

@<SCITEGIC>MOL_PROPERTY
W
SciTegic.value.DoubleValue
-60.014

@<SCITEGIC>MOL_PROPERTY
W(PB)
SciTegic.value.DoubleValue
-66.048

@<SCITEGIC>MOL_PROPERTY
W(SA)
SciTegic.value.DoubleValue
6.034

@<SCITEGIC>MOL_PROPERTY
Valence
SciTegic.value.DoubleValue
158.808

@<SCITEGIC>MOL_PROPERTY
Coulomb
SciTegic.value.DoubleValue
99.764

@<SCITEGIC>MOL_PROPERTY
VdW
SciTegic.value.DoubleValue
-19.746

@<SCITEGIC>MOL_PROPERTY
VdW6
SciTegic.value.DoubleValue
-181.840

@<SCITEGIC>MOL_PROPERTY
VdW12
SciTegic.value.DoubleValue
162.094

@<SCITEGIC>MOL_PROPERTY
Bond
SciTegic.value.DoubleValue
5.179

@<SCITEGIC>MOL_PROPERTY
Angle
SciTegic.value.DoubleValue
12.624

@<SCITEGIC>MOL_PROPERTY
Pdih
SciTegic.value.DoubleValue
140.998

@<SCITEGIC>MOL_PROPERTY
Idih
SciTegic.value.DoubleValue
0.007

@<SCITEGIC>MOL_PROPERTY
Tether
SciTegic.value.DoubleValue
0.000

