@<TRIPOS>MOLECULE
CD_guest-s12_vm2_rndm.mol2 : vm2 host+ligand conformer 1
         152         157           2
SMALL
USER_CHARGES
 
@<TRIPOS>ATOM
       1    C1      16.261062   15.317088   20.672157 C.3        1 MOL1         0.2972
       2    H1      15.224340   15.123005   20.367753 H          1 MOL1         0.0751
       3    O1      16.432429   16.660803   21.158221 O.3        1 MOL1        -0.3740
       4    C2      16.708191   14.339464   21.788344 C.3        1 MOL1         0.1003
       5    H2      16.627813   13.323327   21.380689 H          1 MOL1         0.0783
       6    O2      15.866598   14.445154   22.947915 O.3        1 MOL1        -0.5519
       7    H3      15.844082   15.399137   23.214762 H          1 MOL1         0.3769
       8    C3      18.189110   14.582678   22.172742 C.3        1 MOL1         0.1053
       9    H4      18.260094   15.571700   22.645931 H          1 MOL1         0.0783
      10    O3      18.586516   13.570574   23.104514 O.3        1 MOL1        -0.5519
      11    H5      17.810190   13.457014   23.699433 H          1 MOL1         0.3769
      12    C4      19.105160   14.582113   20.913877 C.3        1 MOL1         0.1018
      13    H6      19.205975   13.558892   20.527994 H          1 MOL1         0.0783
      14    C5      18.535654   15.484297   19.787514 C.3        1 MOL1         0.1043
      15    H7      18.618123   16.533151   20.097811 H          1 MOL1         0.0783
      16    O4      17.149866   15.136498   19.549748 O.3        1 MOL1        -0.3740
      17    C6      19.297480   15.314829   18.456639 C.3        1 MOL1         0.0138
      18    H8      19.135134   14.299364   18.071345 H          1 MOL1         0.0794
      19    H9      20.373594   15.435461   18.636068 H          1 MOL1         0.0794
      20    O5      18.852304   16.290144   17.511738 O.3        1 MOL1        -0.5486
      21    H10     17.876870   16.192296   17.457024 H          1 MOL1         0.3769
      22    C7      14.575915   20.224051   21.823340 C.3        1 MOL1         0.2972
      23    H11     13.932553   21.094630   22.005207 H          1 MOL1         0.0751
      24    O6      15.923689   20.609476   21.485904 O.3        1 MOL1        -0.3740
      25    C8      14.626579   19.321499   23.079605 C.3        1 MOL1         0.1003
      26    H12     13.612495   18.939123   23.254508 H          1 MOL1         0.0783
      27    O7      15.058857   20.063078   24.231417 O.3        1 MOL1        -0.5519
      28    H13     15.444845   20.912820   23.903622 H          1 MOL1         0.3769
      29    C9      15.560705   18.114586   22.836500 C.3        1 MOL1         0.1053
      30    H14     16.584030   18.500718   22.775746 H          1 MOL1         0.0783
      31    O8      15.466245   17.204406   23.936131 O.3        1 MOL1        -0.5519
      32    H15     15.515035   17.772364   24.737549 H          1 MOL1         0.3769
      33    C10     15.234816   17.375993   21.511579 C.3        1 MOL1         0.1018
      34    H16     14.389022   16.698950   21.691676 H          1 MOL1         0.0783
      35    C11     14.916827   18.326937   20.319628 C.3        1 MOL1         0.1043
      36    H17     15.867038   18.731721   19.946481 H          1 MOL1         0.0783
      37    O9      14.061119   19.418522   20.743725 O.3        1 MOL1        -0.3740
      38    C12     14.224613   17.619582   19.133502 C.3        1 MOL1         0.0138
      39    H18     14.910378   16.874155   18.709879 H          1 MOL1         0.0794
      40    H19     14.025087   18.360862   18.348112 H          1 MOL1         0.0794
      41    O10     13.006636   16.992572   19.544768 O.3        1 MOL1        -0.5486
      42    H20     12.447209   17.702717   19.931196 H          1 MOL1         0.3769
      43    C13     18.384441   23.854978   20.786574 C.3        1 MOL1         0.2972
      44    H21     18.813503   24.823583   20.502011 H          1 MOL1         0.0751
      45    O11     19.419387   22.883299   21.056362 O.3        1 MOL1        -0.3740
      46    C14     17.437992   24.008878   22.010178 C.3        1 MOL1         0.1003
      47    H22     16.633210   24.690920   21.706292 H          1 MOL1         0.0783
      48    O12     18.107888   24.568436   23.149108 O.3        1 MOL1        -0.5519
      49    H23     18.776036   23.898990   23.443370 H          1 MOL1         0.3769
      50    C15     16.792971   22.652136   22.376405 C.3        1 MOL1         0.1053
      51    H24     17.588716   21.985840   22.736856 H          1 MOL1         0.0783
      52    O13     15.820358   22.843841   23.408348 O.3        1 MOL1        -0.5519
      53    H25     16.237910   23.468242   24.043485 H          1 MOL1         0.3769
      54    C16     16.131555   21.989917   21.141215 C.3        1 MOL1         0.1018
      55    H26     15.191319   22.502784   20.898060 H          1 MOL1         0.0783
      56    C17     17.051919   22.005972   19.893095 C.3        1 MOL1         0.1043
      57    H27     17.860922   21.289085   20.059921 H          1 MOL1         0.0783
      58    O14     17.585860   23.339838   19.702549 O.3        1 MOL1        -0.3740
      59    C18     16.307224   21.597276   18.603460 C.3        1 MOL1         0.0138
      60    H28     15.697487   22.442403   18.256863 H          1 MOL1         0.0794
      61    H29     15.623429   20.769315   18.829675 H          1 MOL1         0.0794
      62    O15     17.233085   21.190098   17.589221 O.3        1 MOL1        -0.5486
      63    H30     16.706350   20.971721   16.789813 H          1 MOL1         0.3769
      64    C19     23.421922   22.567219   22.185838 C.3        1 MOL1         0.2972
      65    H31     24.435300   22.762288   22.559866 H          1 MOL1         0.0751
      66    O16     23.340672   21.300071   21.507023 O.3        1 MOL1        -0.3740
      67    C20     22.402109   22.585295   23.354934 C.3        1 MOL1         0.1003
      68    H32     22.465388   23.576599   23.822354 H          1 MOL1         0.0783
      69    O17     22.697774   21.581291   24.339417 O.3        1 MOL1        -0.5519
      70    H33     23.623536   21.276119   24.179983 H          1 MOL1         0.3769
      71    C21     20.960972   22.389765   22.833230 C.3        1 MOL1         0.1053
      72    H34     20.885906   21.365591   22.448719 H          1 MOL1         0.0783
      73    O18     20.047341   22.570634   23.919071 O.3        1 MOL1        -0.5519
      74    H35     20.435547   22.046415   24.655565 H          1 MOL1         0.3769
      75    C22     20.630315   23.365335   21.675204 C.3        1 MOL1         0.1018
      76    H36     20.509988   24.377390   22.083690 H          1 MOL1         0.0783
      77    C23     21.745631   23.375760   20.594809 C.3        1 MOL1         0.1043
      78    H37     21.733256   22.413299   20.066325 H          1 MOL1         0.0783
      79    O19     23.027341   23.585826   21.242012 O.3        1 MOL1        -0.3740
      80    C24     21.563606   24.496881   19.551227 C.3        1 MOL1         0.0138
      81    H38     21.590824   25.472388   20.054958 H          1 MOL1         0.0794
      82    H39     20.582438   24.391035   19.070318 H          1 MOL1         0.0794
      83    O20     22.593037   24.411463   18.564481 O.3        1 MOL1        -0.5486
      84    H40     23.442311   24.397667   19.058978 H          1 MOL1         0.3769
      85    C25     25.295685   17.760104   20.995825 C.3        1 MOL1         0.2972
      86    H41     25.941753   16.899170   20.780472 H          1 MOL1         0.0751
      87    O21     23.912088   17.368702   21.137188 O.3        1 MOL1        -0.3740
      88    C26     25.763373   18.518643   22.264483 C.3        1 MOL1         0.1003
      89    H42     26.751304   18.941523   22.039686 H          1 MOL1         0.0783
      90    O22     25.883631   17.652731   23.401757 O.3        1 MOL1        -0.5519
      91    H43     24.972935   17.324774   23.611011 H          1 MOL1         0.3769
      92    C27     24.801619   19.692764   22.566870 C.3        1 MOL1         0.1053
      93    H44     23.829787   19.268012   22.855377 H          1 MOL1         0.0783
      94    O23     25.330451   20.465609   23.649933 O.3        1 MOL1        -0.5519
      95    H45     25.686106   19.803906   24.285930 H          1 MOL1         0.3769
      96    C28     24.581437   20.594136   21.318826 C.3        1 MOL1         0.1018
      97    H46     25.428003   21.285051   21.208374 H          1 MOL1         0.0783
      98    C29     24.412022   19.803290   19.992633 C.3        1 MOL1         0.1043
      99    H47     23.393080   19.401871   19.958148 H          1 MOL1         0.0783
     100    O24     25.369209   18.717390   19.919659 O.3        1 MOL1        -0.3740
     101    C30     24.617393   20.705833   18.757352 C.3        1 MOL1         0.0138
     102    H48     25.649637   21.080494   18.749276 H          1 MOL1         0.0794
     103    H49     23.947393   21.573598   18.828456 H          1 MOL1         0.0794
     104    O25     24.341412   19.974278   17.561398 O.3        1 MOL1        -0.5486
     105    H50     24.889548   19.160069   17.607524 H          1 MOL1         0.3769
     106    C31     21.331027   14.233090   21.880572 C.3        1 MOL1         0.2972
     107    H51     20.864602   13.272624   22.132839 H          1 MOL1         0.0751
     108    O26     20.391492   15.135540   21.259868 O.3        1 MOL1        -0.3740
     109    C32     21.898758   14.906778   23.155189 C.3        1 MOL1         0.1003
     110    H52     22.645878   14.222323   23.577738 H          1 MOL1         0.0783
     111    O27     20.870197   15.143166   24.130512 O.3        1 MOL1        -0.5519
     112    H53     20.125370   14.530205   23.919325 H          1 MOL1         0.3769
     113    C33     22.604365   16.236100   22.802881 C.3        1 MOL1         0.1053
     114    H54     21.841914   16.940874   22.451514 H          1 MOL1         0.0783
     115    O28     23.225620   16.751865   23.982571 O.3        1 MOL1        -0.5519
     116    H55     22.539909   16.656172   24.681933 H          1 MOL1         0.3769
     117    C34     23.642658   16.056726   21.665694 C.3        1 MOL1         0.1018
     118    H56     24.544431   15.581673   22.074414 H          1 MOL1         0.0783
     119    C35     23.084435   15.218306   20.481436 C.3        1 MOL1         0.1043
     120    H57     22.356184   15.834560   19.937896 H          1 MOL1         0.0783
     121    O29     22.431744   14.021550   20.971239 O.3        1 MOL1        -0.3740
     122    C36     24.173556   14.786388   19.474551 C.3        1 MOL1         0.0138
     123    H58     24.605823   15.682311   19.009297 H          1 MOL1         0.0794
     124    H59     23.703276   14.197697   18.675546 H          1 MOL1         0.0794
     125    O30     25.198059   14.022461   20.117294 O.3        1 MOL1        -0.5486
     126    H60     24.748268   13.254352   20.534811 H          1 MOL1         0.3769
     127    N1      19.994476   20.904231   16.630201 N.4        1 MOL1        -0.4857
     128    H1      19.174274   21.108310   17.235846 H          1 MOL1         0.3650
     129    H2      19.649212   21.061346   15.671735 H          1 MOL1         0.3650
     130    C1      20.408579   19.447813   16.788125 C.3        1 MOL1         0.0209
     131    H3      21.197740   19.246867   16.059393 H          1 MOL1         0.0967
     132    H4      19.543146   18.832177   16.527914 H          1 MOL1         0.0967
     133    C2      20.901317   19.047934   18.194766 C.3        1 MOL1        -0.1378
     134    H5      21.117854   17.971741   18.195900 H          1 MOL1         0.0993
     135    H6      21.845723   19.558555   18.404196 H          1 MOL1         0.0993
     136    C3      19.874457   19.376640   19.298539 C.3        1 MOL1        -0.1338
     137    H7      18.905357   18.929454   19.034867 H          1 MOL1         0.0993
     138    H8      19.728952   20.463134   19.342048 H          1 MOL1         0.0993
     139    C4      20.318632   18.875306   20.689910 C.3        1 MOL1        -0.1338
     140    H9      20.543501   17.802084   20.641166 H          1 MOL1         0.0993
     141    H10     21.245861   19.380743   20.992172 H          1 MOL1         0.0993
     142    C5      19.218110   19.127706   21.742194 C.3        1 MOL1        -0.1313
     143    H11     19.003571   20.202153   21.806858 H          1 MOL1         0.0993
     144    H12     18.289868   18.644266   21.413991 H          1 MOL1         0.0993
     145    C6      19.606878   18.601834   23.138988 C.3        1 MOL1        -0.2328
     146    H13     19.713622   17.510080   23.132685 H          1 MOL1         0.1004
     147    H14     18.834907   18.856251   23.876591 H          1 MOL1         0.1004
     148    H15     20.554775   19.039449   23.479710 H          1 MOL1         0.1004
     149    C7      21.153709   21.849130   16.929384 C.3        1 MOL1        -0.0781
     150    H16     21.987835   21.616475   16.263715 H          1 MOL1         0.0978
     151    H17     20.829358   22.880103   16.771072 H          1 MOL1         0.0978
     152    H18     21.466714   21.720856   17.967124 H          1 MOL1         0.0978
@<TRIPOS>BOND
    1     1     2    1
    2     1     3    1
    3     1     4    1
    4     4     5    1
    5     4     6    1
    6     6     7    1
    7     4     8    1
    8     8     9    1
    9     8    10    1
   10    10    11    1
   11     8    12    1
   12    12    13    1
   13    12    14    1
   14    14    15    1
   15     1    16    1
   16    14    16    1
   17    14    17    1
   18    17    18    1
   19    17    19    1
   20    17    20    1
   21    20    21    1
   22    22    23    1
   23    22    24    1
   24    22    25    1
   25    25    26    1
   26    25    27    1
   27    27    28    1
   28    25    29    1
   29    29    30    1
   30    29    31    1
   31    31    32    1
   32     3    33    1
   33    29    33    1
   34    33    34    1
   35    33    35    1
   36    35    36    1
   37    22    37    1
   38    35    37    1
   39    35    38    1
   40    38    39    1
   41    38    40    1
   42    38    41    1
   43    41    42    1
   44    43    44    1
   45    43    45    1
   46    43    46    1
   47    46    47    1
   48    46    48    1
   49    48    49    1
   50    46    50    1
   51    50    51    1
   52    50    52    1
   53    52    53    1
   54    24    54    1
   55    50    54    1
   56    54    55    1
   57    54    56    1
   58    56    57    1
   59    43    58    1
   60    56    58    1
   61    56    59    1
   62    59    60    1
   63    59    61    1
   64    59    62    1
   65    62    63    1
   66    64    65    1
   67    64    66    1
   68    64    67    1
   69    67    68    1
   70    67    69    1
   71    69    70    1
   72    67    71    1
   73    71    72    1
   74    71    73    1
   75    73    74    1
   76    45    75    1
   77    71    75    1
   78    75    76    1
   79    75    77    1
   80    77    78    1
   81    64    79    1
   82    77    79    1
   83    77    80    1
   84    80    81    1
   85    80    82    1
   86    80    83    1
   87    83    84    1
   88    85    86    1
   89    85    87    1
   90    85    88    1
   91    88    89    1
   92    88    90    1
   93    90    91    1
   94    88    92    1
   95    92    93    1
   96    92    94    1
   97    94    95    1
   98    66    96    1
   99    92    96    1
  100    96    97    1
  101    96    98    1
  102    98    99    1
  103    85   100    1
  104    98   100    1
  105    98   101    1
  106   101   102    1
  107   101   103    1
  108   101   104    1
  109   104   105    1
  110   106   107    1
  111    12   108    1
  112   106   108    1
  113   106   109    1
  114   109   110    1
  115   109   111    1
  116   111   112    1
  117   109   113    1
  118   113   114    1
  119   113   115    1
  120   115   116    1
  121    87   117    1
  122   113   117    1
  123   117   118    1
  124   117   119    1
  125   119   120    1
  126   106   121    1
  127   119   121    1
  128   119   122    1
  129   122   123    1
  130   122   124    1
  131   122   125    1
  132   125   126    1
  133   127   128    1
  134   127   129    1
  135   127   130    1
  136   130   131    1
  137   130   132    1
  138   130   133    1
  139   133   134    1
  140   133   135    1
  141   133   136    1
  142   136   137    1
  143   136   138    1
  144   136   139    1
  145   139   140    1
  146   139   141    1
  147   139   142    1
  148   142   143    1
  149   142   144    1
  150   142   145    1
  151   145   146    1
  152   145   147    1
  153   145   148    1
  154   127   149    1
  155   149   150    1
  156   149   151    1
  157   149   152    1
@<TRIPOS>SUBSTRUCTURE
       1 MOL1            1 RESIDUE      1      MOL     
       2 MOL1          152 RESIDUE      1      MOL     
@<SCITEGIC>MOL_PROPERTY
VM2 Rank
SciTegic.value.IntegerValue
1

@<SCITEGIC>MOL_PROPERTY
Conf_Id
SciTegic.value.IntegerValue
22335

@<SCITEGIC>MOL_PROPERTY
Probability
SciTegic.value.DoubleValue
2.36

@<SCITEGIC>MOL_PROPERTY
Sum Probability
SciTegic.value.DoubleValue
2.36

@<SCITEGIC>MOL_PROPERTY
Delta G
SciTegic.value.DoubleValue
0.000

@<SCITEGIC>MOL_PROPERTY
G
SciTegic.value.DoubleValue
594.768

@<SCITEGIC>MOL_PROPERTY
E
SciTegic.value.DoubleValue
390.478

@<SCITEGIC>MOL_PROPERTY
-TS
SciTegic.value.DoubleValue
204.290

@<SCITEGIC>MOL_PROPERTY
U+W
SciTegic.value.DoubleValue
256.342

@<SCITEGIC>MOL_PROPERTY
U
SciTegic.value.DoubleValue
319.656

@<SCITEGIC>MOL_PROPERTY
W
SciTegic.value.DoubleValue
-63.314

@<SCITEGIC>MOL_PROPERTY
W(PB)
SciTegic.value.DoubleValue
-69.239

@<SCITEGIC>MOL_PROPERTY
W(SA)
SciTegic.value.DoubleValue
5.926

@<SCITEGIC>MOL_PROPERTY
Valence
SciTegic.value.DoubleValue
146.352

@<SCITEGIC>MOL_PROPERTY
Coulomb
SciTegic.value.DoubleValue
200.742

@<SCITEGIC>MOL_PROPERTY
VdW
SciTegic.value.DoubleValue
-27.438

@<SCITEGIC>MOL_PROPERTY
VdW6
SciTegic.value.DoubleValue
-182.392

@<SCITEGIC>MOL_PROPERTY
VdW12
SciTegic.value.DoubleValue
154.954

@<SCITEGIC>MOL_PROPERTY
Bond
SciTegic.value.DoubleValue
4.404

@<SCITEGIC>MOL_PROPERTY
Angle
SciTegic.value.DoubleValue
10.365

@<SCITEGIC>MOL_PROPERTY
Pdih
SciTegic.value.DoubleValue
131.583

@<SCITEGIC>MOL_PROPERTY
Idih
SciTegic.value.DoubleValue
0.000

@<SCITEGIC>MOL_PROPERTY
Tether
SciTegic.value.DoubleValue
0.000

