@<TRIPOS>MOLECULE
CD_guest-2_vm2_rndm.mol2 : vm2 host+ligand conformer 1
         149         154           2
SMALL
USER_CHARGES
 
@<TRIPOS>ATOM
       1    C1      16.427417   15.416566   21.753010 C.3        1 MOL1         0.2972
       2    H1      15.378926   15.273594   22.043052 H          1 MOL1         0.0751
       3    O1      16.632443   16.694487   21.117880 O.3        1 MOL1        -0.3740
       4    C2      17.350896   15.317313   22.996309 C.3        1 MOL1         0.1003
       5    H2      17.193569   14.323327   23.435005 H          1 MOL1         0.0783
       6    O2      17.035552   16.319430   23.976522 O.3        1 MOL1        -0.5519
       7    H3      16.096528   16.584674   23.827394 H          1 MOL1         0.3769
       8    C3      18.838305   15.436261   22.593046 C.3        1 MOL1         0.1053
       9    H4      19.008484   16.456357   22.229999 H          1 MOL1         0.0783
      10    O3      19.647713   15.192255   23.746684 O.3        1 MOL1        -0.5519
      11    H5      19.224776   15.724421   24.458133 H          1 MOL1         0.3769
      12    C4      19.201994   14.454050   21.451824 C.3        1 MOL1         0.1018
      13    H6      19.251476   13.437007   21.862804 H          1 MOL1         0.0783
      14    C5      18.169456   14.501939   20.291828 C.3        1 MOL1         0.1043
      15    H7      18.279740   15.461574   19.769342 H          1 MOL1         0.0783
      16    O4      16.825826   14.386824   20.822468 O.3        1 MOL1        -0.3740
      17    C6      18.364164   13.376533   19.251264 C.3        1 MOL1         0.0138
      18    H8      19.333634   13.513306   18.753911 H          1 MOL1         0.0794
      19    H9      17.586533   13.468548   18.481230 H          1 MOL1         0.0794
      20    O5      18.304190   12.086328   19.866324 O.3        1 MOL1        -0.5486
      21    H10     17.429081   12.033366   20.311212 H          1 MOL1         0.3769
      22    C7      14.666422   20.328839   20.779457 C.3        1 MOL1         0.2972
      23    H11     13.987462   21.162507   20.557833 H          1 MOL1         0.0751
      24    O6      15.962897   20.789572   21.204713 O.3        1 MOL1        -0.3740
      25    C8      14.091495   19.413576   21.888721 C.3        1 MOL1         0.1003
      26    H12     13.149871   18.995713   21.509268 H          1 MOL1         0.0783
      27    O7      13.823702   20.148776   23.093211 O.3        1 MOL1        -0.5519
      28    H13     14.657626   20.619386   23.347909 H          1 MOL1         0.3769
      29    C9      15.054973   18.235145   22.176620 C.3        1 MOL1         0.1053
      30    H14     15.968984   18.646468   22.627402 H          1 MOL1         0.0783
      31    O8      14.418615   17.345704   23.100953 O.3        1 MOL1        -0.5519
      32    H15     13.956466   17.934653   23.740634 H          1 MOL1         0.3769
      33    C10     15.454672   17.490104   20.868237 C.3        1 MOL1         0.1018
      34    H16     14.618553   16.865441   20.526621 H          1 MOL1         0.0783
      35    C11     15.846506   18.466253   19.726693 C.3        1 MOL1         0.1043
      36    H17     16.822551   18.906350   19.962061 H          1 MOL1         0.0783
      37    O9      14.849716   19.509729   19.605791 O.3        1 MOL1        -0.3740
      38    C12     15.960111   17.754706   18.362179 C.3        1 MOL1         0.0138
      39    H18     14.961629   17.438820   18.031514 H          1 MOL1         0.0794
      40    H19     16.575264   16.852005   18.474287 H          1 MOL1         0.0794
      41    O10     16.558393   18.629452   17.403137 O.3        1 MOL1        -0.5486
      42    H20     16.007203   19.442224   17.390177 H          1 MOL1         0.3769
      43    C13     18.323895   24.013253   21.958534 C.3        1 MOL1         0.2972
      44    H21     18.807682   24.974477   22.175409 H          1 MOL1         0.0751
      45    O11     19.276658   23.022080   21.517701 O.3        1 MOL1        -0.3740
      46    C14     17.593384   23.488687   23.219381 C.3        1 MOL1         0.1003
      47    H22     16.811213   24.216750   23.470994 H          1 MOL1         0.0783
      48    O12     18.494924   23.360659   24.330375 O.3        1 MOL1        -0.5519
      49    H23     19.396101   23.604176   24.003789 H          1 MOL1         0.3769
      50    C15     16.912583   22.132675   22.930160 C.3        1 MOL1         0.1053
      51    H24     17.707387   21.390511   22.806318 H          1 MOL1         0.0783
      52    O13     16.095609   21.760103   24.043532 O.3        1 MOL1        -0.5519
      53    H25     16.658569   21.926030   24.832919 H          1 MOL1         0.3769
      54    C16     16.060523   22.158983   21.634059 C.3        1 MOL1         0.1018
      55    H26     15.078165   22.589672   21.869895 H          1 MOL1         0.0783
      56    C17     16.721743   22.936306   20.458788 C.3        1 MOL1         0.1043
      57    H27     17.494829   22.291022   20.022195 H          1 MOL1         0.0783
      58    O14     17.329176   24.166719   20.926064 O.3        1 MOL1        -0.3740
      59    C18     15.732838   23.296397   19.328056 C.3        1 MOL1         0.0138
      60    H28     15.352271   22.370966   18.876008 H          1 MOL1         0.0794
      61    H29     16.275506   23.842399   18.544739 H          1 MOL1         0.0794
      62    O15     14.647813   24.086227   19.822742 O.3        1 MOL1        -0.5486
      63    H30     15.051442   24.882581   20.234562 H          1 MOL1         0.3769
      64    C19     23.366713   22.612536   20.819911 C.3        1 MOL1         0.2972
      65    H31     24.410248   22.771499   20.519142 H          1 MOL1         0.0751
      66    O16     23.120776   21.231333   21.150576 O.3        1 MOL1        -0.3740
      67    C20     22.988897   23.521757   22.022615 C.3        1 MOL1         0.1003
      68    H32     23.133235   24.559591   21.695207 H          1 MOL1         0.0783
      69    O17     23.821524   23.279776   23.166769 O.3        1 MOL1        -0.5519
      70    H33     23.666820   22.341519   23.444712 H          1 MOL1         0.3769
      71    C21     21.498097   23.348757   22.400286 C.3        1 MOL1         0.1053
      72    H34     21.362225   22.330828   22.790862 H          1 MOL1         0.0783
      73    O18     21.153648   24.305736   23.407389 O.3        1 MOL1        -0.5519
      74    H35     21.918168   24.310683   24.026999 H          1 MOL1         0.3769
      75    C22     20.581161   23.516835   21.160652 C.3        1 MOL1         0.1018
      76    H36     20.546311   24.573617   20.863424 H          1 MOL1         0.0783
      77    C23     21.076971   22.680161   19.952677 C.3        1 MOL1         0.1043
      78    H37     20.917567   21.617157   20.169418 H          1 MOL1         0.0783
      79    O19     22.483640   22.952304   19.730371 O.3        1 MOL1        -0.3740
      80    C24     20.329213   23.025695   18.648527 C.3        1 MOL1         0.0138
      81    H38     20.558888   24.060460   18.361247 H          1 MOL1         0.0794
      82    H39     19.247804   22.960147   18.818617 H          1 MOL1         0.0794
      83    O20     20.713547   22.118737   17.613366 O.3        1 MOL1        -0.5486
      84    H40     21.693595   22.159447   17.568270 H          1 MOL1         0.3769
      85    C25     24.965733   17.656735   22.054528 C.3        1 MOL1         0.2972
      86    H41     25.630788   16.832801   22.343976 H          1 MOL1         0.0751
      87    O21     23.758041   17.178221   21.429126 O.3        1 MOL1        -0.3740
      88    C26     24.588775   18.512329   23.291434 C.3        1 MOL1         0.1003
      89    H42     25.517581   18.947874   23.682395 H          1 MOL1         0.0783
      90    O22     23.969056   17.726233   24.321607 O.3        1 MOL1        -0.5519
      91    H43     23.944792   16.790203   24.005170 H          1 MOL1         0.3769
      92    C27     23.651725   19.668769   22.880208 C.3        1 MOL1         0.1053
      93    H44     22.703197   19.223507   22.556781 H          1 MOL1         0.0783
      94    O23     23.429161   20.518915   24.009590 O.3        1 MOL1        -0.5519
      95    H45     23.255020   19.898859   24.753372 H          1 MOL1         0.3769
      96    C28     24.227446   20.488044   21.698411 C.3        1 MOL1         0.1018
      97    H46     25.017480   21.147494   22.081280 H          1 MOL1         0.0783
      98    C29     24.794534   19.589909   20.560680 C.3        1 MOL1         0.1043
      99    H47     23.948432   19.145507   20.020140 H          1 MOL1         0.0783
     100    O24     25.622654   18.536292   21.116861 O.3        1 MOL1        -0.3740
     101    C30     25.645459   20.362559   19.528432 C.3        1 MOL1         0.0138
     102    H48     25.002715   21.076714   18.997065 H          1 MOL1         0.0794
     103    H49     26.027577   19.651885   18.783313 H          1 MOL1         0.0794
     104    O25     26.729318   21.049774   20.159904 O.3        1 MOL1        -0.5486
     105    H50     27.255801   20.364225   20.628262 H          1 MOL1         0.3769
     106    C31     21.474654   13.858338   20.728716 C.3        1 MOL1         0.2972
     107    H51     21.023359   12.893561   20.463080 H          1 MOL1         0.0751
     108    O26     20.468830   14.879872   20.910594 O.3        1 MOL1        -0.3740
     109    C32     22.353041   13.735652   22.002378 C.3        1 MOL1         0.1003
     110    H52     23.178844   13.054974   21.757299 H          1 MOL1         0.0783
     111    O27     21.625687   13.194113   23.114407 O.3        1 MOL1        -0.5519
     112    H53     20.931325   13.859208   23.352019 H          1 MOL1         0.3769
     113    C33     22.963479   15.108103   22.372059 C.3        1 MOL1         0.1053
     114    H54     22.142820   15.770939   22.680479 H          1 MOL1         0.0783
     115    O28     23.880286   14.936102   23.457347 O.3        1 MOL1        -0.5519
     116    H55     23.441694   14.297082   24.064002 H          1 MOL1         0.3769
     117    C34     23.683174   15.765015   21.163176 C.3        1 MOL1         0.1018
     118    H56     24.679564   15.320444   21.038558 H          1 MOL1         0.0783
     119    C35     22.899331   15.629753   19.828271 C.3        1 MOL1         0.1043
     120    H57     22.079277   16.355907   19.842341 H          1 MOL1         0.0783
     121    O29     22.354670   14.295828   19.673662 O.3        1 MOL1        -0.3740
     122    C36     23.770798   15.933512   18.589747 C.3        1 MOL1         0.0138
     123    H58     24.173216   16.951792   18.675512 H          1 MOL1         0.0794
     124    H59     23.135978   15.902577   17.694380 H          1 MOL1         0.0794
     125    O30     24.839357   14.990376   18.470461 O.3        1 MOL1        -0.5486
     126    H60     24.420636   14.100745   18.478534 H          1 MOL1         0.3769
     127    N1      21.072938   18.542070   15.611413 N.4        1 MOL1        -0.5940
     128    H1      20.641161   18.720430   14.698680 H          1 MOL1         0.3649
     129    H2      21.382958   17.565730   15.610860 H          1 MOL1         0.3649
     130    H3      21.909579   19.131296   15.664908 H          1 MOL1         0.3649
     131    C1      20.112240   18.831718   16.746382 C.3        1 MOL1         0.0207
     132    H4      19.226089   18.204103   16.613757 H          1 MOL1         0.0950
     133    H5      19.804257   19.878639   16.668077 H          1 MOL1         0.0950
     134    C2      20.722997   18.581522   18.135859 C.3        1 MOL1        -0.1415
     135    H6      21.049971   17.537831   18.210453 H          1 MOL1         0.0976
     136    H7      21.608348   19.218448   18.265245 H          1 MOL1         0.0976
     137    C3      19.695339   18.887356   19.243196 C.3        1 MOL1        -0.1375
     138    H8      18.847510   18.196279   19.149673 H          1 MOL1         0.0976
     139    H9      19.297450   19.900568   19.088441 H          1 MOL1         0.0976
     140    C4      20.293085   18.780918   20.663699 C.3        1 MOL1        -0.1375
     141    H10     21.207211   19.384373   20.725683 H          1 MOL1         0.0976
     142    H11     20.581779   17.743399   20.876489 H          1 MOL1         0.0976
     143    C5      19.281663   19.269637   21.721160 C.3        1 MOL1        -0.1350
     144    H12     18.385425   18.637176   21.699678 H          1 MOL1         0.0976
     145    H13     18.956712   20.284108   21.460272 H          1 MOL1         0.0976
     146    C6      19.867347   19.270819   23.147691 C.3        1 MOL1        -0.2365
     147    H14     19.091486   19.522350   23.882429 H          1 MOL1         0.0987
     148    H15     20.667240   20.014935   23.242919 H          1 MOL1         0.0987
     149    H16     20.275655   18.286688   23.412874 H          1 MOL1         0.0987
@<TRIPOS>BOND
    1     1     2    1
    2     1     3    1
    3     1     4    1
    4     4     5    1
    5     4     6    1
    6     6     7    1
    7     4     8    1
    8     8     9    1
    9     8    10    1
   10    10    11    1
   11     8    12    1
   12    12    13    1
   13    12    14    1
   14    14    15    1
   15     1    16    1
   16    14    16    1
   17    14    17    1
   18    17    18    1
   19    17    19    1
   20    17    20    1
   21    20    21    1
   22    22    23    1
   23    22    24    1
   24    22    25    1
   25    25    26    1
   26    25    27    1
   27    27    28    1
   28    25    29    1
   29    29    30    1
   30    29    31    1
   31    31    32    1
   32     3    33    1
   33    29    33    1
   34    33    34    1
   35    33    35    1
   36    35    36    1
   37    22    37    1
   38    35    37    1
   39    35    38    1
   40    38    39    1
   41    38    40    1
   42    38    41    1
   43    41    42    1
   44    43    44    1
   45    43    45    1
   46    43    46    1
   47    46    47    1
   48    46    48    1
   49    48    49    1
   50    46    50    1
   51    50    51    1
   52    50    52    1
   53    52    53    1
   54    24    54    1
   55    50    54    1
   56    54    55    1
   57    54    56    1
   58    56    57    1
   59    43    58    1
   60    56    58    1
   61    56    59    1
   62    59    60    1
   63    59    61    1
   64    59    62    1
   65    62    63    1
   66    64    65    1
   67    64    66    1
   68    64    67    1
   69    67    68    1
   70    67    69    1
   71    69    70    1
   72    67    71    1
   73    71    72    1
   74    71    73    1
   75    73    74    1
   76    45    75    1
   77    71    75    1
   78    75    76    1
   79    75    77    1
   80    77    78    1
   81    64    79    1
   82    77    79    1
   83    77    80    1
   84    80    81    1
   85    80    82    1
   86    80    83    1
   87    83    84    1
   88    85    86    1
   89    85    87    1
   90    85    88    1
   91    88    89    1
   92    88    90    1
   93    90    91    1
   94    88    92    1
   95    92    93    1
   96    92    94    1
   97    94    95    1
   98    66    96    1
   99    92    96    1
  100    96    97    1
  101    96    98    1
  102    98    99    1
  103    85   100    1
  104    98   100    1
  105    98   101    1
  106   101   102    1
  107   101   103    1
  108   101   104    1
  109   104   105    1
  110   106   107    1
  111    12   108    1
  112   106   108    1
  113   106   109    1
  114   109   110    1
  115   109   111    1
  116   111   112    1
  117   109   113    1
  118   113   114    1
  119   113   115    1
  120   115   116    1
  121    87   117    1
  122   113   117    1
  123   117   118    1
  124   117   119    1
  125   119   120    1
  126   106   121    1
  127   119   121    1
  128   119   122    1
  129   122   123    1
  130   122   124    1
  131   122   125    1
  132   125   126    1
  133   127   128    1
  134   127   129    1
  135   127   130    1
  136   127   131    1
  137   131   132    1
  138   131   133    1
  139   131   134    1
  140   134   135    1
  141   134   136    1
  142   134   137    1
  143   137   138    1
  144   137   139    1
  145   137   140    1
  146   140   141    1
  147   140   142    1
  148   140   143    1
  149   143   144    1
  150   143   145    1
  151   143   146    1
  152   146   147    1
  153   146   148    1
  154   146   149    1
@<TRIPOS>SUBSTRUCTURE
       1 MOL1            1 RESIDUE      1      MOL     
       2 MOL1          149 RESIDUE      1      MOL     
@<SCITEGIC>MOL_PROPERTY
VM2 Rank
SciTegic.value.IntegerValue
1

@<SCITEGIC>MOL_PROPERTY
Conf_Id
SciTegic.value.IntegerValue
22927

@<SCITEGIC>MOL_PROPERTY
Probability
SciTegic.value.DoubleValue
1.98

@<SCITEGIC>MOL_PROPERTY
Sum Probability
SciTegic.value.DoubleValue
1.98

@<SCITEGIC>MOL_PROPERTY
Delta G
SciTegic.value.DoubleValue
0.000

@<SCITEGIC>MOL_PROPERTY
G
SciTegic.value.DoubleValue
557.081

@<SCITEGIC>MOL_PROPERTY
E
SciTegic.value.DoubleValue
360.326

@<SCITEGIC>MOL_PROPERTY
-TS
SciTegic.value.DoubleValue
196.755

@<SCITEGIC>MOL_PROPERTY
U+W
SciTegic.value.DoubleValue
228.873

@<SCITEGIC>MOL_PROPERTY
U
SciTegic.value.DoubleValue
307.716

@<SCITEGIC>MOL_PROPERTY
W
SciTegic.value.DoubleValue
-78.843

@<SCITEGIC>MOL_PROPERTY
W(PB)
SciTegic.value.DoubleValue
-84.895

@<SCITEGIC>MOL_PROPERTY
W(SA)
SciTegic.value.DoubleValue
6.051

@<SCITEGIC>MOL_PROPERTY
Valence
SciTegic.value.DoubleValue
145.769

@<SCITEGIC>MOL_PROPERTY
Coulomb
SciTegic.value.DoubleValue
186.915

@<SCITEGIC>MOL_PROPERTY
VdW
SciTegic.value.DoubleValue
-24.968

@<SCITEGIC>MOL_PROPERTY
VdW6
SciTegic.value.DoubleValue
-174.317

@<SCITEGIC>MOL_PROPERTY
VdW12
SciTegic.value.DoubleValue
149.349

@<SCITEGIC>MOL_PROPERTY
Bond
SciTegic.value.DoubleValue
4.368

@<SCITEGIC>MOL_PROPERTY
Angle
SciTegic.value.DoubleValue
10.183

@<SCITEGIC>MOL_PROPERTY
Pdih
SciTegic.value.DoubleValue
131.217

@<SCITEGIC>MOL_PROPERTY
Idih
SciTegic.value.DoubleValue
0.000

@<SCITEGIC>MOL_PROPERTY
Tether
SciTegic.value.DoubleValue
0.000

@<TRIPOS>MOLECULE
CD_guest-2_vm2_rndm.mol2 : vm2 host+ligand conformer 2
         149         154           2
SMALL
USER_CHARGES
 
@<TRIPOS>ATOM
       1    C1      16.460379   15.304794   21.838712 C.3        1 MOL1         0.2972
       2    H1      15.407114   15.196142   22.125844 H          1 MOL1         0.0751
       3    O1      16.713920   16.580496   21.216041 O.3        1 MOL1        -0.3740
       4    C2      17.378199   15.165458   23.081207 C.3        1 MOL1         0.1003
       5    H2      17.193657   14.171118   23.508303 H          1 MOL1         0.0783
       6    O2      17.085407   16.165983   24.070317 O.3        1 MOL1        -0.5519
       7    H3      16.159059   16.467349   23.910700 H          1 MOL1         0.3769
       8    C3      18.869374   15.250242   22.680784 C.3        1 MOL1         0.1053
       9    H4      19.071855   16.273924   22.344782 H          1 MOL1         0.0783
      10    O3      19.672617   14.955952   23.827030 O.3        1 MOL1        -0.5519
      11    H5      19.270713   15.487943   24.550566 H          1 MOL1         0.3769
      12    C4      19.215124   14.291266   21.513607 C.3        1 MOL1         0.1018
      13    H6      19.291634   13.267381   21.902873 H          1 MOL1         0.0783
      14    C5      18.168267   14.348904   20.365983 C.3        1 MOL1         0.1043
      15    H7      18.292276   15.302119   19.835134 H          1 MOL1         0.0783
      16    O4      16.826365   14.266121   20.905716 O.3        1 MOL1        -0.3740
      17    C6      18.332689   13.214385   19.330260 C.3        1 MOL1         0.0138
      18    H8      19.300461   13.329648   18.824329 H          1 MOL1         0.0794
      19    H9      17.550760   13.317461   18.565996 H          1 MOL1         0.0794
      20    O5      18.252313   11.928977   19.952882 O.3        1 MOL1        -0.5486
      21    H10     17.380562   11.896219   20.406323 H          1 MOL1         0.3769
      22    C7      14.777928   20.254164   20.836535 C.3        1 MOL1         0.2972
      23    H11     14.082159   21.066416   20.589111 H          1 MOL1         0.0751
      24    O6      16.039539   20.754079   21.318374 O.3        1 MOL1        -0.3740
      25    C8      14.190423   19.337967   21.938022 C.3        1 MOL1         0.1003
      26    H12     13.252964   18.918954   21.549731 H          1 MOL1         0.0783
      27    O7      13.912709   20.082652   23.135233 O.3        1 MOL1        -0.5519
      28    H13     14.702088   20.651218   23.322904 H          1 MOL1         0.3769
      29    C9      15.149193   18.159996   22.246018 C.3        1 MOL1         0.1053
      30    H14     16.055639   18.572242   22.710444 H          1 MOL1         0.0783
      31    O8      14.497541   17.274912   23.163587 O.3        1 MOL1        -0.5519
      32    H15     14.032819   17.867977   23.797621 H          1 MOL1         0.3769
      33    C10     15.568852   17.414985   20.944268 C.3        1 MOL1         0.1018
      34    H16     14.726520   16.820789   20.565689 H          1 MOL1         0.0783
      35    C11     16.023758   18.402648   19.837479 C.3        1 MOL1         0.1043
      36    H17     16.981652   18.845627   20.133298 H          1 MOL1         0.0783
      37    O9      15.026580   19.438288   19.672373 O.3        1 MOL1        -0.3740
      38    C12     16.219462   17.710393   18.472622 C.3        1 MOL1         0.0138
      39    H18     15.245267   17.380589   18.087597 H          1 MOL1         0.0794
      40    H19     16.845323   16.818129   18.604468 H          1 MOL1         0.0794
      41    O10     16.849023   18.608845   17.556564 O.3        1 MOL1        -0.5486
      42    H20     16.271142   19.400890   17.507449 H          1 MOL1         0.3769
      43    C13     18.306434   24.146860   21.748052 C.3        1 MOL1         0.2972
      44    H21     18.725727   25.155848   21.851341 H          1 MOL1         0.0751
      45    O11     19.337373   23.148663   21.595790 O.3        1 MOL1        -0.3740
      46    C14     17.461162   23.796061   22.997004 C.3        1 MOL1         0.1003
      47    H22     16.630306   24.511890   23.046140 H          1 MOL1         0.0783
      48    O12     18.247246   23.901062   24.194557 O.3        1 MOL1        -0.5519
      49    H23     19.197743   23.829684   23.927887 H          1 MOL1         0.3769
      50    C15     16.862739   22.377200   22.867029 C.3        1 MOL1         0.1053
      51    H24     17.692625   21.665450   22.931534 H          1 MOL1         0.0783
      52    O13     15.951085   22.137118   23.943289 O.3        1 MOL1        -0.5519
      53    H25     16.422003   22.450114   24.747853 H          1 MOL1         0.3769
      54    C16     16.136225   22.176834   21.511551 C.3        1 MOL1         0.1018
      55    H26     15.148001   22.651009   21.578651 H          1 MOL1         0.0783
      56    C17     16.920688   22.749645   20.295855 C.3        1 MOL1         0.1043
      57    H27     17.755449   22.070661   20.077037 H          1 MOL1         0.0783
      58    O14     17.436004   24.070126   20.600943 O.3        1 MOL1        -0.3740
      59    C18     16.069041   22.865469   19.012143 C.3        1 MOL1         0.0138
      60    H28     15.761391   21.861642   18.692222 H          1 MOL1         0.0794
      61    H29     16.692592   23.285045   18.211282 H          1 MOL1         0.0794
      62    O15     14.919065   23.688160   19.228407 O.3        1 MOL1        -0.5486
      63    H30     15.256905   24.558591   19.536171 H          1 MOL1         0.3769
      64    C19     23.423735   22.688196   20.965704 C.3        1 MOL1         0.2972
      65    H31     24.479918   22.831906   20.703668 H          1 MOL1         0.0751
      66    O16     23.130624   21.298679   21.218086 O.3        1 MOL1        -0.3740
      67    C20     23.033539   23.545872   22.201749 C.3        1 MOL1         0.1003
      68    H32     23.199504   24.595940   21.928028 H          1 MOL1         0.0783
      69    O17     23.836257   23.238144   23.351108 O.3        1 MOL1        -0.5519
      70    H33     23.654451   22.293396   23.586882 H          1 MOL1         0.3769
      71    C21     21.531508   23.374413   22.531007 C.3        1 MOL1         0.1053
      72    H34     21.368006   22.336102   22.851630 H          1 MOL1         0.0783
      73    O18     21.164928   24.271232   23.584095 O.3        1 MOL1        -0.5519
      74    H35     21.896822   24.212122   24.238481 H          1 MOL1         0.3769
      75    C22     20.653973   23.640716   21.282934 C.3        1 MOL1         0.1018
      76    H36     20.651767   24.716543   21.062285 H          1 MOL1         0.0783
      77    C23     21.161619   22.876223   20.032317 C.3        1 MOL1         0.1043
      78    H37     20.961073   21.807877   20.166843 H          1 MOL1         0.0783
      79    O19     22.583686   23.112001   19.870123 O.3        1 MOL1        -0.3740
      80    C24     20.464594   23.336699   18.735519 C.3        1 MOL1         0.0138
      81    H38     20.732302   24.381699   18.529779 H          1 MOL1         0.0794
      82    H39     19.377086   23.292372   18.869878 H          1 MOL1         0.0794
      83    O20     20.851725   22.493914   17.648499 O.3        1 MOL1        -0.5486
      84    H40     21.832912   22.522209   17.618396 H          1 MOL1         0.3769
      85    C25     24.881672   17.641619   22.057557 C.3        1 MOL1         0.2972
      86    H41     25.542080   16.812474   22.342596 H          1 MOL1         0.0751
      87    O21     23.692774   17.170461   21.390724 O.3        1 MOL1        -0.3740
      88    C26     24.478732   18.466063   23.308981 C.3        1 MOL1         0.1003
      89    H42     25.403669   18.866881   23.743806 H          1 MOL1         0.0783
      90    O22     23.808057   17.660390   24.291191 O.3        1 MOL1        -0.5519
      91    H43     23.927591   16.715514   24.028762 H          1 MOL1         0.3769
      92    C27     23.577457   19.656111   22.913685 C.3        1 MOL1         0.1053
      93    H44     22.626534   19.239623   22.565002 H          1 MOL1         0.0783
      94    O23     23.348912   20.473481   24.065197 O.3        1 MOL1        -0.5519
      95    H45     23.142024   19.832924   24.782821 H          1 MOL1         0.3769
      96    C28     24.196386   20.497054   21.767552 C.3        1 MOL1         0.1018
      97    H46     25.002675   21.115681   22.183366 H          1 MOL1         0.0783
      98    C29     24.752621   19.614962   20.613385 C.3        1 MOL1         0.1043
      99    H47     23.901947   19.195943   20.059960 H          1 MOL1         0.0783
     100    O24     25.561000   18.537892   21.152353 O.3        1 MOL1        -0.3740
     101    C30     25.621218   20.396889   19.603030 C.3        1 MOL1         0.0138
     102    H48     24.993586   21.136537   19.088595 H          1 MOL1         0.0794
     103    H49     25.992094   19.698351   18.841010 H          1 MOL1         0.0794
     104    O25     26.715695   21.047481   20.254778 O.3        1 MOL1        -0.5486
     105    H50     27.226241   20.340975   20.709379 H          1 MOL1         0.3769
     106    C31     21.490775   13.772587   20.721492 C.3        1 MOL1         0.2972
     107    H51     21.065097   12.796952   20.453410 H          1 MOL1         0.0751
     108    O26     20.460122   14.755614   20.958510 O.3        1 MOL1        -0.3740
     109    C32     22.414535   13.664801   21.962988 C.3        1 MOL1         0.1003
     110    H52     23.253927   13.015684   21.681228 H          1 MOL1         0.0783
     111    O27     21.742947   13.084387   23.090453 O.3        1 MOL1        -0.5519
     112    H53     21.024688   13.714161   23.352406 H          1 MOL1         0.3769
     113    C33     22.991089   15.053104   22.331598 C.3        1 MOL1         0.1053
     114    H54     22.161942   15.679691   22.689555 H          1 MOL1         0.0783
     115    O28     23.960576   14.890085   23.372356 O.3        1 MOL1        -0.5519
     116    H55     23.571433   14.221475   23.981065 H          1 MOL1         0.3769
     117    C34     23.631978   15.759055   21.103600 C.3        1 MOL1         0.1018
     118    H56     24.630380   15.341645   20.916052 H          1 MOL1         0.0783
     119    C35     22.789003   15.626219   19.805825 C.3        1 MOL1         0.1043
     120    H57     21.933237   16.307182   19.877921 H          1 MOL1         0.0783
     121    O29     22.319620   14.264475   19.647825 O.3        1 MOL1        -0.3740
     122    C36     23.603942   15.999872   18.548219 C.3        1 MOL1         0.0138
     123    H58     24.405422   15.262981   18.404059 H          1 MOL1         0.0794
     124    H59     24.076678   16.979068   18.703015 H          1 MOL1         0.0794
     125    O30     22.751978   16.046599   17.400326 O.3        1 MOL1        -0.5486
     126    H60     22.298396   15.174400   17.367656 H          1 MOL1         0.3769
     127    N1      21.671089   18.533098   16.196020 N.4        1 MOL1        -0.5940
     128    H1      22.149795   17.663462   16.486270 H          1 MOL1         0.3649
     129    H2      22.375037   19.276260   16.174123 H          1 MOL1         0.3649
     130    H3      21.344276   18.391499   15.235342 H          1 MOL1         0.3649
     131    C1      20.532148   18.859962   17.138872 C.3        1 MOL1         0.0207
     132    H4      19.805337   18.045199   17.076154 H          1 MOL1         0.0950
     133    H5      20.049008   19.781542   16.801676 H          1 MOL1         0.0950
     134    C2      21.005271   19.016101   18.592379 C.3        1 MOL1        -0.1415
     135    H6      21.682680   18.194015   18.840452 H          1 MOL1         0.0976
     136    H7      21.584320   19.943138   18.695563 H          1 MOL1         0.0976
     137    C3      19.820025   19.015336   19.578221 C.3        1 MOL1        -0.1375
     138    H8      19.195640   18.127542   19.406043 H          1 MOL1         0.0976
     139    H9      19.188829   19.894258   19.385471 H          1 MOL1         0.0976
     140    C4      20.308132   19.019271   21.041944 C.3        1 MOL1        -0.1375
     141    H10     21.017524   19.840708   21.181255 H          1 MOL1         0.0976
     142    H11     20.849148   18.087311   21.258342 H          1 MOL1         0.0976
     143    C5      19.150515   19.194868   22.040968 C.3        1 MOL1        -0.1350
     144    H12     18.437236   18.369999   21.939380 H          1 MOL1         0.0976
     145    H13     18.606510   20.112836   21.795161 H          1 MOL1         0.0976
     146    C6      19.653001   19.261045   23.497587 C.3        1 MOL1        -0.2365
     147    H14     18.809694   19.369960   24.191909 H          1 MOL1         0.0987
     148    H15     20.325655   20.116039   23.645368 H          1 MOL1         0.0987
     149    H16     20.196650   18.346331   23.769179 H          1 MOL1         0.0987
@<TRIPOS>BOND
    1     1     2    1
    2     1     3    1
    3     1     4    1
    4     4     5    1
    5     4     6    1
    6     6     7    1
    7     4     8    1
    8     8     9    1
    9     8    10    1
   10    10    11    1
   11     8    12    1
   12    12    13    1
   13    12    14    1
   14    14    15    1
   15     1    16    1
   16    14    16    1
   17    14    17    1
   18    17    18    1
   19    17    19    1
   20    17    20    1
   21    20    21    1
   22    22    23    1
   23    22    24    1
   24    22    25    1
   25    25    26    1
   26    25    27    1
   27    27    28    1
   28    25    29    1
   29    29    30    1
   30    29    31    1
   31    31    32    1
   32     3    33    1
   33    29    33    1
   34    33    34    1
   35    33    35    1
   36    35    36    1
   37    22    37    1
   38    35    37    1
   39    35    38    1
   40    38    39    1
   41    38    40    1
   42    38    41    1
   43    41    42    1
   44    43    44    1
   45    43    45    1
   46    43    46    1
   47    46    47    1
   48    46    48    1
   49    48    49    1
   50    46    50    1
   51    50    51    1
   52    50    52    1
   53    52    53    1
   54    24    54    1
   55    50    54    1
   56    54    55    1
   57    54    56    1
   58    56    57    1
   59    43    58    1
   60    56    58    1
   61    56    59    1
   62    59    60    1
   63    59    61    1
   64    59    62    1
   65    62    63    1
   66    64    65    1
   67    64    66    1
   68    64    67    1
   69    67    68    1
   70    67    69    1
   71    69    70    1
   72    67    71    1
   73    71    72    1
   74    71    73    1
   75    73    74    1
   76    45    75    1
   77    71    75    1
   78    75    76    1
   79    75    77    1
   80    77    78    1
   81    64    79    1
   82    77    79    1
   83    77    80    1
   84    80    81    1
   85    80    82    1
   86    80    83    1
   87    83    84    1
   88    85    86    1
   89    85    87    1
   90    85    88    1
   91    88    89    1
   92    88    90    1
   93    90    91    1
   94    88    92    1
   95    92    93    1
   96    92    94    1
   97    94    95    1
   98    66    96    1
   99    92    96    1
  100    96    97    1
  101    96    98    1
  102    98    99    1
  103    85   100    1
  104    98   100    1
  105    98   101    1
  106   101   102    1
  107   101   103    1
  108   101   104    1
  109   104   105    1
  110   106   107    1
  111    12   108    1
  112   106   108    1
  113   106   109    1
  114   109   110    1
  115   109   111    1
  116   111   112    1
  117   109   113    1
  118   113   114    1
  119   113   115    1
  120   115   116    1
  121    87   117    1
  122   113   117    1
  123   117   118    1
  124   117   119    1
  125   119   120    1
  126   106   121    1
  127   119   121    1
  128   119   122    1
  129   122   123    1
  130   122   124    1
  131   122   125    1
  132   125   126    1
  133   127   128    1
  134   127   129    1
  135   127   130    1
  136   127   131    1
  137   131   132    1
  138   131   133    1
  139   131   134    1
  140   134   135    1
  141   134   136    1
  142   134   137    1
  143   137   138    1
  144   137   139    1
  145   137   140    1
  146   140   141    1
  147   140   142    1
  148   140   143    1
  149   143   144    1
  150   143   145    1
  151   143   146    1
  152   146   147    1
  153   146   148    1
  154   146   149    1
@<TRIPOS>SUBSTRUCTURE
       1 MOL1            1 RESIDUE      1      MOL     
       2 MOL1          149 RESIDUE      1      MOL     
@<SCITEGIC>MOL_PROPERTY
VM2 Rank
SciTegic.value.IntegerValue
2

@<SCITEGIC>MOL_PROPERTY
Conf_Id
SciTegic.value.IntegerValue
21066

@<SCITEGIC>MOL_PROPERTY
Probability
SciTegic.value.DoubleValue
1.73

@<SCITEGIC>MOL_PROPERTY
Sum Probability
SciTegic.value.DoubleValue
3.72

@<SCITEGIC>MOL_PROPERTY
Delta G
SciTegic.value.DoubleValue
0.080

@<SCITEGIC>MOL_PROPERTY
G
SciTegic.value.DoubleValue
557.161

@<SCITEGIC>MOL_PROPERTY
E
SciTegic.value.DoubleValue
359.305

@<SCITEGIC>MOL_PROPERTY
-TS
SciTegic.value.DoubleValue
197.856

@<SCITEGIC>MOL_PROPERTY
U+W
SciTegic.value.DoubleValue
227.851

@<SCITEGIC>MOL_PROPERTY
U
SciTegic.value.DoubleValue
297.842

@<SCITEGIC>MOL_PROPERTY
W
SciTegic.value.DoubleValue
-69.991

@<SCITEGIC>MOL_PROPERTY
W(PB)
SciTegic.value.DoubleValue
-75.976

@<SCITEGIC>MOL_PROPERTY
W(SA)
SciTegic.value.DoubleValue
5.985

@<SCITEGIC>MOL_PROPERTY
Valence
SciTegic.value.DoubleValue
146.154

@<SCITEGIC>MOL_PROPERTY
Coulomb
SciTegic.value.DoubleValue
177.032

@<SCITEGIC>MOL_PROPERTY
VdW
SciTegic.value.DoubleValue
-25.344

@<SCITEGIC>MOL_PROPERTY
VdW6
SciTegic.value.DoubleValue
-176.042

@<SCITEGIC>MOL_PROPERTY
VdW12
SciTegic.value.DoubleValue
150.698

@<SCITEGIC>MOL_PROPERTY
Bond
SciTegic.value.DoubleValue
4.365

@<SCITEGIC>MOL_PROPERTY
Angle
SciTegic.value.DoubleValue
9.766

@<SCITEGIC>MOL_PROPERTY
Pdih
SciTegic.value.DoubleValue
132.023

@<SCITEGIC>MOL_PROPERTY
Idih
SciTegic.value.DoubleValue
0.000

@<SCITEGIC>MOL_PROPERTY
Tether
SciTegic.value.DoubleValue
0.000

@<TRIPOS>MOLECULE
CD_guest-2_vm2_rndm.mol2 : vm2 host+ligand conformer 3
         149         154           2
SMALL
USER_CHARGES
 
@<TRIPOS>ATOM
       1    C1      16.259172   15.354681   21.779308 C.3        1 MOL1         0.2972
       2    H1      15.219348   15.158383   22.070815 H          1 MOL1         0.0751
       3    O1      16.387901   16.612555   21.088442 O.3        1 MOL1        -0.3740
       4    C2      17.184580   15.352600   23.027034 C.3        1 MOL1         0.1003
       5    H2      17.101626   14.359137   23.486796 H          1 MOL1         0.0783
       6    O2      16.801443   16.347226   23.989939 O.3        1 MOL1        -0.5519
       7    H3      15.870298   16.607392   23.789865 H          1 MOL1         0.3769
       8    C3      18.658360   15.571612   22.619388 C.3        1 MOL1         0.1053
       9    H4      18.745403   16.592056   22.226209 H          1 MOL1         0.0783
      10    O3      19.489303   15.420079   23.774659 O.3        1 MOL1        -0.5519
      11    H5      19.034385   15.943259   24.472654 H          1 MOL1         0.3769
      12    C4      19.094770   14.584227   21.509919 C.3        1 MOL1         0.1018
      13    H6      19.205949   13.585991   21.952814 H          1 MOL1         0.0783
      14    C5      18.065597   14.521559   20.346879 C.3        1 MOL1         0.1043
      15    H7      18.107523   15.469910   19.794696 H          1 MOL1         0.0783
      16    O4      16.732249   14.323835   20.884603 O.3        1 MOL1        -0.3740
      17    C6      18.340790   13.383378   19.339002 C.3        1 MOL1         0.0138
      18    H8      19.293067   13.580025   18.828919 H          1 MOL1         0.0794
      19    H9      17.553582   13.391709   18.573237 H          1 MOL1         0.0794
      20    O5      18.385045   12.111357   19.991915 O.3        1 MOL1        -0.5486
      21    H10     17.518684   12.002488   20.443573 H          1 MOL1         0.3769
      22    C7      14.552498   20.225659   20.609377 C.3        1 MOL1         0.2972
      23    H11     13.941730   21.110070   20.386223 H          1 MOL1         0.0751
      24    O6      15.929309   20.579446   20.870229 O.3        1 MOL1        -0.3740
      25    C8      13.975121   19.424662   21.804262 C.3        1 MOL1         0.1003
      26    H12     12.992193   19.048199   21.492002 H          1 MOL1         0.0783
      27    O7      13.804479   20.240818   22.971744 O.3        1 MOL1        -0.5519
      28    H13     14.708806   20.528423   23.255585 H          1 MOL1         0.3769
      29    C9      14.873067   18.203699   22.118781 C.3        1 MOL1         0.1053
      30    H14     15.828851   18.582077   22.508124 H          1 MOL1         0.0783
      31    O8      14.227958   17.400782   23.113607 O.3        1 MOL1        -0.5519
      32    H15     13.834232   18.045281   23.745130 H          1 MOL1         0.3769
      33    C10     15.174473   17.354338   20.849596 C.3        1 MOL1         0.1018
      34    H16     14.328106   16.687154   20.638585 H          1 MOL1         0.0783
      35    C11     15.464669   18.208096   19.585167 C.3        1 MOL1         0.1043
      36    H17     16.487212   18.587278   19.669164 H          1 MOL1         0.0783
      37    O9      14.538385   19.318025   19.489112 O.3        1 MOL1        -0.3740
      38    C12     15.361706   17.383238   18.283679 C.3        1 MOL1         0.0138
      39    H18     14.335237   17.008848   18.173032 H          1 MOL1         0.0794
      40    H19     16.028503   16.513354   18.355665 H          1 MOL1         0.0794
      41    O10     15.724727   18.187750   17.157384 O.3        1 MOL1        -0.5486
      42    H20     15.153051   18.986803   17.210199 H          1 MOL1         0.3769
      43    C13     18.458946   23.683563   21.937647 C.3        1 MOL1         0.2972
      44    H21     18.888972   24.635247   22.274097 H          1 MOL1         0.0751
      45    O11     19.457457   22.831842   21.338340 O.3        1 MOL1        -0.3740
      46    C14     17.814439   22.934162   23.131699 C.3        1 MOL1         0.1003
      47    H22     17.034305   23.589325   23.540776 H          1 MOL1         0.0783
      48    O12     18.778175   22.651084   24.159389 O.3        1 MOL1        -0.5519
      49    H23     19.525736   23.284475   24.037313 H          1 MOL1         0.3769
      50    C15     17.145329   21.622252   22.661046 C.3        1 MOL1         0.1053
      51    H24     17.934853   20.942441   22.319521 H          1 MOL1         0.0783
      52    O13     16.450739   21.038087   23.765978 O.3        1 MOL1        -0.5519
      53    H25     17.089876   21.090516   24.512322 H          1 MOL1         0.3769
      54    C16     16.180846   21.863306   21.472472 C.3        1 MOL1         0.1018
      55    H26     15.260662   22.331039   21.847177 H          1 MOL1         0.0783
      56    C17     16.821809   22.751669   20.369794 C.3        1 MOL1         0.1043
      57    H27     17.594556   22.162160   19.858766 H          1 MOL1         0.0783
      58    O14     17.424169   23.929076   20.961301 O.3        1 MOL1        -0.3740
      59    C18     15.810164   23.223018   19.301542 C.3        1 MOL1         0.0138
      60    H28     15.424285   22.346936   18.763427 H          1 MOL1         0.0794
      61    H29     16.335504   23.850808   18.569410 H          1 MOL1         0.0794
      62    O15     14.731180   23.950064   19.896213 O.3        1 MOL1        -0.5486
      63    H30     15.139354   24.701598   20.381168 H          1 MOL1         0.3769
      64    C19     23.611773   22.708621   21.038342 C.3        1 MOL1         0.2972
      65    H31     24.669938   22.909185   20.825784 H          1 MOL1         0.0751
      66    O16     23.393679   21.338946   21.426019 O.3        1 MOL1        -0.3740
      67    C20     23.083035   23.625353   22.170477 C.3        1 MOL1         0.1003
      68    H32     23.183803   24.661569   21.822202 H          1 MOL1         0.0783
      69    O17     23.843185   23.464360   23.378400 O.3        1 MOL1        -0.5519
      70    H33     23.848090   22.498954   23.601726 H          1 MOL1         0.3769
      71    C21     21.580590   23.356278   22.435587 C.3        1 MOL1         0.1053
      72    H34     21.485398   22.342297   22.846641 H          1 MOL1         0.0783
      73    O18     21.108567   24.311630   23.392123 O.3        1 MOL1        -0.5519
      74    H35     21.839694   24.395822   24.046190 H          1 MOL1         0.3769
      75    C22     20.754058   23.425168   21.117900 C.3        1 MOL1         0.1018
      76    H36     20.660462   24.470490   20.794431 H          1 MOL1         0.0783
      77    C23     21.412694   22.609936   19.973331 C.3        1 MOL1         0.1043
      78    H37     21.312026   21.540181   20.194345 H          1 MOL1         0.0783
      79    O19     22.811947   22.969206   19.866034 O.3        1 MOL1        -0.3740
      80    C24     20.750899   22.884860   18.607316 C.3        1 MOL1         0.0138
      81    H38     20.926040   23.930920   18.322495 H          1 MOL1         0.0794
      82    H39     19.666164   22.739208   18.693398 H          1 MOL1         0.0794
      83    O20     21.282312   21.998456   17.620976 O.3        1 MOL1        -0.5486
      84    H40     22.258540   22.099416   17.660539 H          1 MOL1         0.3769
      85    C25     25.148226   17.717747   22.091494 C.3        1 MOL1         0.2972
      86    H41     25.772386   16.836276   22.287129 H          1 MOL1         0.0751
      87    O21     23.824823   17.353650   21.647012 O.3        1 MOL1        -0.3740
      88    C26     25.024217   18.582346   23.370221 C.3        1 MOL1         0.1003
      89    H42     26.029273   18.946001   23.620865 H          1 MOL1         0.0783
      90    O22     24.511764   17.817175   24.472272 O.3        1 MOL1        -0.5519
      91    H43     24.155376   16.971868   24.101905 H          1 MOL1         0.3769
      92    C27     24.123408   19.809296   23.106536 C.3        1 MOL1         0.1053
      93    H44     23.102660   19.440901   22.959484 H          1 MOL1         0.0783
      94    O23     24.151981   20.675761   24.244226 O.3        1 MOL1        -0.5519
      95    H45     24.046875   20.076843   25.017411 H          1 MOL1         0.3769
      96    C28     24.551304   20.588549   21.835526 C.3        1 MOL1         0.1018
      97    H46     25.395147   21.241547   22.095661 H          1 MOL1         0.0783
      98    C29     24.931603   19.671536   20.635506 C.3        1 MOL1         0.1043
      99    H47     24.001917   19.294984   20.188709 H          1 MOL1         0.0783
     100    O24     25.742220   18.551957   21.075772 O.3        1 MOL1        -0.3740
     101    C30     25.708768   20.408408   19.522325 C.3        1 MOL1         0.0138
     102    H48     25.064616   21.184623   19.088577 H          1 MOL1         0.0794
     103    H49     25.941700   19.693671   18.721636 H          1 MOL1         0.0794
     104    O25     26.910989   20.992649   20.031451 O.3        1 MOL1        -0.5486
     105    H50     27.430468   20.256430   20.424861 H          1 MOL1         0.3769
     106    C31     21.392060   14.110657   20.776348 C.3        1 MOL1         0.2972
     107    H51     20.983266   13.142311   20.460351 H          1 MOL1         0.0751
     108    O26     20.340598   15.080001   20.977250 O.3        1 MOL1        -0.3740
     109    C32     22.250240   13.957201   22.064883 C.3        1 MOL1         0.1003
     110    H52     23.068177   13.266903   21.820703 H          1 MOL1         0.0783
     111    O27     21.500466   13.411383   23.160259 O.3        1 MOL1        -0.5519
     112    H53     20.807500   14.080216   23.392052 H          1 MOL1         0.3769
     113    C33     22.880760   15.308709   22.475331 C.3        1 MOL1         0.1053
     114    H54     22.069200   15.978438   22.791475 H          1 MOL1         0.0783
     115    O28     23.786223   15.098941   23.562957 O.3        1 MOL1        -0.5519
     116    H55     23.324444   14.471834   24.164230 H          1 MOL1         0.3769
     117    C34     23.622619   15.974590   21.288712 C.3        1 MOL1         0.1018
     118    H56     24.571060   15.453806   21.100463 H          1 MOL1         0.0783
     119    C35     22.779874   15.966375   19.987645 C.3        1 MOL1         0.1043
     120    H57     21.958135   16.680442   20.102540 H          1 MOL1         0.0783
     121    O29     22.263089   14.633030   19.750929 O.3        1 MOL1        -0.3740
     122    C36     23.599596   16.378444   18.748420 C.3        1 MOL1         0.0138
     123    H58     24.352453   15.607448   18.536589 H          1 MOL1         0.0794
     124    H59     24.131583   17.315158   18.957710 H          1 MOL1         0.0794
     125    O30     22.727579   16.555040   17.629975 O.3        1 MOL1        -0.5486
     126    H60     22.227167   15.714632   17.538195 H          1 MOL1         0.3769
     127    N1      18.311964   18.468109   15.714731 N.4        1 MOL1        -0.5940
     128    H1      18.317751   19.445969   15.410155 H          1 MOL1         0.3649
     129    H2      17.364836   18.271629   16.080319 H          1 MOL1         0.3649
     130    H3      18.443572   17.886404   14.881562 H          1 MOL1         0.3649
     131    C1      19.364343   18.200496   16.770055 C.3        1 MOL1         0.0207
     132    H4      20.348615   18.437386   16.356473 H          1 MOL1         0.0950
     133    H5      19.334138   17.132661   17.002185 H          1 MOL1         0.0950
     134    C2      19.118980   19.010413   18.052825 C.3        1 MOL1        -0.1415
     135    H6      19.296159   20.076970   17.861609 H          1 MOL1         0.0976
     136    H7      18.068176   18.911553   18.333388 H          1 MOL1         0.0976
     137    C3      20.008036   18.524383   19.214146 C.3        1 MOL1        -0.1375
     138    H8      21.054262   18.783740   18.997472 H          1 MOL1         0.0976
     139    H9      19.956686   17.428863   19.281018 H          1 MOL1         0.0976
     140    C4      19.576118   19.129415   20.568872 C.3        1 MOL1        -0.1375
     141    H10     18.581673   18.750422   20.842640 H          1 MOL1         0.0976
     142    H11     19.482440   20.218994   20.478459 H          1 MOL1         0.0976
     143    C5      20.587058   18.786610   21.682619 C.3        1 MOL1        -0.1350
     144    H12     21.570396   19.190570   21.411071 H          1 MOL1         0.0976
     145    H13     20.704829   17.698645   21.758271 H          1 MOL1         0.0976
     146    C6      20.156107   19.341751   23.055321 C.3        1 MOL1        -0.2365
     147    H14     20.870840   19.048103   23.834710 H          1 MOL1         0.0987
     148    H15     19.168760   18.958470   23.345468 H          1 MOL1         0.0987
     149    H16     20.108539   20.437268   23.039991 H          1 MOL1         0.0987
@<TRIPOS>BOND
    1     1     2    1
    2     1     3    1
    3     1     4    1
    4     4     5    1
    5     4     6    1
    6     6     7    1
    7     4     8    1
    8     8     9    1
    9     8    10    1
   10    10    11    1
   11     8    12    1
   12    12    13    1
   13    12    14    1
   14    14    15    1
   15     1    16    1
   16    14    16    1
   17    14    17    1
   18    17    18    1
   19    17    19    1
   20    17    20    1
   21    20    21    1
   22    22    23    1
   23    22    24    1
   24    22    25    1
   25    25    26    1
   26    25    27    1
   27    27    28    1
   28    25    29    1
   29    29    30    1
   30    29    31    1
   31    31    32    1
   32     3    33    1
   33    29    33    1
   34    33    34    1
   35    33    35    1
   36    35    36    1
   37    22    37    1
   38    35    37    1
   39    35    38    1
   40    38    39    1
   41    38    40    1
   42    38    41    1
   43    41    42    1
   44    43    44    1
   45    43    45    1
   46    43    46    1
   47    46    47    1
   48    46    48    1
   49    48    49    1
   50    46    50    1
   51    50    51    1
   52    50    52    1
   53    52    53    1
   54    24    54    1
   55    50    54    1
   56    54    55    1
   57    54    56    1
   58    56    57    1
   59    43    58    1
   60    56    58    1
   61    56    59    1
   62    59    60    1
   63    59    61    1
   64    59    62    1
   65    62    63    1
   66    64    65    1
   67    64    66    1
   68    64    67    1
   69    67    68    1
   70    67    69    1
   71    69    70    1
   72    67    71    1
   73    71    72    1
   74    71    73    1
   75    73    74    1
   76    45    75    1
   77    71    75    1
   78    75    76    1
   79    75    77    1
   80    77    78    1
   81    64    79    1
   82    77    79    1
   83    77    80    1
   84    80    81    1
   85    80    82    1
   86    80    83    1
   87    83    84    1
   88    85    86    1
   89    85    87    1
   90    85    88    1
   91    88    89    1
   92    88    90    1
   93    90    91    1
   94    88    92    1
   95    92    93    1
   96    92    94    1
   97    94    95    1
   98    66    96    1
   99    92    96    1
  100    96    97    1
  101    96    98    1
  102    98    99    1
  103    85   100    1
  104    98   100    1
  105    98   101    1
  106   101   102    1
  107   101   103    1
  108   101   104    1
  109   104   105    1
  110   106   107    1
  111    12   108    1
  112   106   108    1
  113   106   109    1
  114   109   110    1
  115   109   111    1
  116   111   112    1
  117   109   113    1
  118   113   114    1
  119   113   115    1
  120   115   116    1
  121    87   117    1
  122   113   117    1
  123   117   118    1
  124   117   119    1
  125   119   120    1
  126   106   121    1
  127   119   121    1
  128   119   122    1
  129   122   123    1
  130   122   124    1
  131   122   125    1
  132   125   126    1
  133   127   128    1
  134   127   129    1
  135   127   130    1
  136   127   131    1
  137   131   132    1
  138   131   133    1
  139   131   134    1
  140   134   135    1
  141   134   136    1
  142   134   137    1
  143   137   138    1
  144   137   139    1
  145   137   140    1
  146   140   141    1
  147   140   142    1
  148   140   143    1
  149   143   144    1
  150   143   145    1
  151   143   146    1
  152   146   147    1
  153   146   148    1
  154   146   149    1
@<TRIPOS>SUBSTRUCTURE
       1 MOL1            1 RESIDUE      1      MOL     
       2 MOL1          149 RESIDUE      1      MOL     
@<SCITEGIC>MOL_PROPERTY
VM2 Rank
SciTegic.value.IntegerValue
3

@<SCITEGIC>MOL_PROPERTY
Conf_Id
SciTegic.value.IntegerValue
9303

@<SCITEGIC>MOL_PROPERTY
Probability
SciTegic.value.DoubleValue
1.45

@<SCITEGIC>MOL_PROPERTY
Sum Probability
SciTegic.value.DoubleValue
5.17

@<SCITEGIC>MOL_PROPERTY
Delta G
SciTegic.value.DoubleValue
0.185

@<SCITEGIC>MOL_PROPERTY
G
SciTegic.value.DoubleValue
557.266

@<SCITEGIC>MOL_PROPERTY
E
SciTegic.value.DoubleValue
358.425

@<SCITEGIC>MOL_PROPERTY
-TS
SciTegic.value.DoubleValue
198.841

@<SCITEGIC>MOL_PROPERTY
U+W
SciTegic.value.DoubleValue
226.972

@<SCITEGIC>MOL_PROPERTY
U
SciTegic.value.DoubleValue
297.769

@<SCITEGIC>MOL_PROPERTY
W
SciTegic.value.DoubleValue
-70.777

@<SCITEGIC>MOL_PROPERTY
W(PB)
SciTegic.value.DoubleValue
-76.837

@<SCITEGIC>MOL_PROPERTY
W(SA)
SciTegic.value.DoubleValue
6.061

@<SCITEGIC>MOL_PROPERTY
Valence
SciTegic.value.DoubleValue
146.214

@<SCITEGIC>MOL_PROPERTY
Coulomb
SciTegic.value.DoubleValue
175.950

@<SCITEGIC>MOL_PROPERTY
VdW
SciTegic.value.DoubleValue
-24.395

@<SCITEGIC>MOL_PROPERTY
VdW6
SciTegic.value.DoubleValue
-176.119

@<SCITEGIC>MOL_PROPERTY
VdW12
SciTegic.value.DoubleValue
151.724

@<SCITEGIC>MOL_PROPERTY
Bond
SciTegic.value.DoubleValue
4.426

@<SCITEGIC>MOL_PROPERTY
Angle
SciTegic.value.DoubleValue
10.274

@<SCITEGIC>MOL_PROPERTY
Pdih
SciTegic.value.DoubleValue
131.513

@<SCITEGIC>MOL_PROPERTY
Idih
SciTegic.value.DoubleValue
0.000

@<SCITEGIC>MOL_PROPERTY
Tether
SciTegic.value.DoubleValue
0.000

@<TRIPOS>MOLECULE
CD_guest-2_vm2_rndm.mol2 : vm2 host+ligand conformer 4
         149         154           2
SMALL
USER_CHARGES
 
@<TRIPOS>ATOM
       1    C1      16.448092   15.378361   21.823932 C.3        1 MOL1         0.2972
       2    H1      15.398617   15.249690   22.117927 H          1 MOL1         0.0751
       3    O1      16.666033   16.648329   21.177408 O.3        1 MOL1        -0.3740
       4    C2      17.370636   15.280651   23.066735 C.3        1 MOL1         0.1003
       5    H2      17.211865   14.288153   23.508289 H          1 MOL1         0.0783
       6    O2      17.054313   16.286028   24.043515 O.3        1 MOL1        -0.5519
       7    H3      16.142183   16.608266   23.844623 H          1 MOL1         0.3769
       8    C3      18.857904   15.395361   22.661116 C.3        1 MOL1         0.1053
       9    H4      19.028033   16.417253   22.299725 H          1 MOL1         0.0783
      10    O3      19.667221   15.149743   23.814413 O.3        1 MOL1        -0.5519
      11    H5      19.259180   15.698823   24.521739 H          1 MOL1         0.3769
      12    C4      19.218409   14.406462   21.521809 C.3        1 MOL1         0.1018
      13    H6      19.275429   13.392227   21.938671 H          1 MOL1         0.0783
      14    C5      18.179673   14.441096   20.366419 C.3        1 MOL1         0.1043
      15    H7      18.290512   15.393429   19.830708 H          1 MOL1         0.0783
      16    O4      16.837166   14.336675   20.902970 O.3        1 MOL1        -0.3740
      17    C6      18.368278   13.302408   19.339346 C.3        1 MOL1         0.0138
      18    H8      19.337284   13.429618   18.838578 H          1 MOL1         0.0794
      19    H9      17.589477   13.387855   18.569743 H          1 MOL1         0.0794
      20    O5      18.304807   12.020093   19.970304 O.3        1 MOL1        -0.5486
      21    H10     17.431301   11.976697   20.419337 H          1 MOL1         0.3769
      22    C7      14.732816   20.270155   20.650243 C.3        1 MOL1         0.2972
      23    H11     14.062635   21.100492   20.392715 H          1 MOL1         0.0751
      24    O6      16.050851   20.738137   21.000627 O.3        1 MOL1        -0.3740
      25    C8      14.160361   19.421281   21.815418 C.3        1 MOL1         0.1003
      26    H12     13.214904   18.989169   21.462314 H          1 MOL1         0.0783
      27    O7      13.896047   20.215801   22.981158 O.3        1 MOL1        -0.5519
      28    H13     14.759785   20.603078   23.273356 H          1 MOL1         0.3769
      29    C9      15.116574   18.252272   22.158998 C.3        1 MOL1         0.1053
      30    H14     16.041021   18.679451   22.572649 H          1 MOL1         0.0783
      31    O8      14.487835   17.417768   23.138244 O.3        1 MOL1        -0.5519
      32    H15     14.040574   18.042170   23.754224 H          1 MOL1         0.3769
      33    C10     15.488811   17.430286   20.890979 C.3        1 MOL1         0.1018
      34    H16     14.644416   16.790520   20.601444 H          1 MOL1         0.0783
      35    C11     15.864422   18.331857   19.685784 C.3        1 MOL1         0.1043
      36    H17     16.850317   18.770190   19.876770 H          1 MOL1         0.0783
      37    O9      14.875895   19.379439   19.524120 O.3        1 MOL1        -0.3740
      38    C12     15.938661   17.539339   18.364280 C.3        1 MOL1         0.0138
      39    H18     14.936459   17.174994   18.101848 H          1 MOL1         0.0794
      40    H19     16.587219   16.664075   18.502490 H          1 MOL1         0.0794
      41    O10     16.461122   18.370560   17.326102 O.3        1 MOL1        -0.5486
      42    H20     15.904601   19.180216   17.318704 H          1 MOL1         0.3769
      43    C13     18.379337   23.965170   21.950787 C.3        1 MOL1         0.2972
      44    H21     18.830512   24.924407   22.235594 H          1 MOL1         0.0751
      45    O11     19.350860   23.066007   21.376289 O.3        1 MOL1        -0.3740
      46    C14     17.726814   23.287446   23.182435 C.3        1 MOL1         0.1003
      47    H22     16.927688   23.952948   23.534198 H          1 MOL1         0.0783
      48    O12     18.673198   23.085960   24.244223 O.3        1 MOL1        -0.5519
      49    H23     19.507447   23.547573   23.984101 H          1 MOL1         0.3769
      50    C15     17.089694   21.937358   22.785485 C.3        1 MOL1         0.1053
      51    H24     17.904980   21.252003   22.527929 H          1 MOL1         0.0783
      52    O13     16.364536   21.414501   23.901978 O.3        1 MOL1        -0.5519
      53    H25     16.975579   21.523632   24.665536 H          1 MOL1         0.3769
      54    C16     16.159548   22.063945   21.551168 C.3        1 MOL1         0.1018
      55    H26     15.187769   22.456930   21.878527 H          1 MOL1         0.0783
      56    C17     16.750233   22.961209   20.424468 C.3        1 MOL1         0.1043
      57    H27     17.528650   22.386647   19.905005 H          1 MOL1         0.0783
      58    O14     17.332525   24.168331   20.978711 O.3        1 MOL1        -0.3740
      59    C18     15.705837   23.381541   19.366752 C.3        1 MOL1         0.0138
      60    H28     15.339298   22.484908   18.849649 H          1 MOL1         0.0794
      61    H29     16.198545   24.012878   18.615205 H          1 MOL1         0.0794
      62    O15     14.614881   24.084858   19.967769 O.3        1 MOL1        -0.5486
      63    H30     15.007287   24.857011   20.433067 H          1 MOL1         0.3769
      64    C19     23.453383   22.696120   20.868940 C.3        1 MOL1         0.2972
      65    H31     24.514250   22.835922   20.624492 H          1 MOL1         0.0751
      66    O16     23.155895   21.312376   21.149361 O.3        1 MOL1        -0.3740
      67    C20     23.034693   23.587391   22.070401 C.3        1 MOL1         0.1003
      68    H32     23.202266   24.628854   21.766228 H          1 MOL1         0.0783
      69    O17     23.816657   23.320429   23.244130 O.3        1 MOL1        -0.5519
      70    H33     23.622034   22.387175   23.513481 H          1 MOL1         0.3769
      71    C21     21.527552   23.423936   22.382836 C.3        1 MOL1         0.1053
      72    H34     21.367299   22.403810   22.759711 H          1 MOL1         0.0783
      73    O18     21.159241   24.377921   23.384735 O.3        1 MOL1        -0.5519
      74    H35     21.908817   24.379058   24.022895 H          1 MOL1         0.3769
      75    C22     20.657826   23.610470   21.109234 C.3        1 MOL1         0.1018
      76    H36     20.604151   24.675251   20.845580 H          1 MOL1         0.0783
      77    C23     21.216338   22.824728   19.893721 C.3        1 MOL1         0.1043
      78    H37     21.046198   21.754414   20.060377 H          1 MOL1         0.0783
      79    O19     22.633426   23.092368   19.749991 O.3        1 MOL1        -0.3740
      80    C24     20.526923   23.222372   18.572356 C.3        1 MOL1         0.0138
      81    H38     20.765412   24.268532   18.338447 H          1 MOL1         0.0794
      82    H39     19.438421   23.146738   18.693062 H          1 MOL1         0.0794
      83    O20     20.960145   22.359171   17.519168 O.3        1 MOL1        -0.5486
      84    H40     21.942167   22.385200   17.533050 H          1 MOL1         0.3769
      85    C25     24.866789   17.687136   22.159372 C.3        1 MOL1         0.2972
      86    H41     25.511373   16.865768   22.498049 H          1 MOL1         0.0751
      87    O21     23.717272   17.198867   21.438948 O.3        1 MOL1        -0.3740
      88    C26     24.397613   18.539844   23.368419 C.3        1 MOL1         0.1003
      89    H42     25.300005   18.948228   23.841881 H          1 MOL1         0.0783
      90    O22     23.676801   17.757289   24.333377 O.3        1 MOL1        -0.5519
      91    H43     23.818443   16.806348   24.106576 H          1 MOL1         0.3769
      92    C27     23.522778   19.725621   22.903727 C.3        1 MOL1         0.1053
      93    H44     22.579198   19.315642   22.523212 H          1 MOL1         0.0783
      94    O23     23.258853   20.576999   24.023178 O.3        1 MOL1        -0.5519
      95    H45     22.989765   19.961588   24.742140 H          1 MOL1         0.3769
      96    C28     24.198712   20.533246   21.767113 C.3        1 MOL1         0.1018
      97    H46     24.981453   21.166746   22.204687 H          1 MOL1         0.0783
      98    C29     24.814901   19.624911   20.664774 C.3        1 MOL1         0.1043
      99    H47     23.995299   19.191878   20.076084 H          1 MOL1         0.0783
     100    O24     25.594008   18.562837   21.271863 O.3        1 MOL1        -0.3740
     101    C30     25.736287   20.383649   19.683799 C.3        1 MOL1         0.0138
     102    H48     25.136744   21.109147   19.118290 H          1 MOL1         0.0794
     103    H49     26.147699   19.667301   18.960076 H          1 MOL1         0.0794
     104    O25     26.794198   21.051902   20.376852 O.3        1 MOL1        -0.5486
     105    H50     27.279506   20.357581   20.875780 H          1 MOL1         0.3769
     106    C31     21.497861   13.821169   20.793929 C.3        1 MOL1         0.2972
     107    H51     21.059629   12.846969   20.541210 H          1 MOL1         0.0751
     108    O26     20.479322   14.831830   20.965944 O.3        1 MOL1        -0.3740
     109    C32     22.380846   13.728699   22.065445 C.3        1 MOL1         0.1003
     110    H52     23.219149   13.062077   21.824135 H          1 MOL1         0.0783
     111    O27     21.669236   13.182837   23.185321 O.3        1 MOL1        -0.5519
     112    H53     20.964209   13.837119   23.421302 H          1 MOL1         0.3769
     113    C33     22.965279   15.117264   22.417083 C.3        1 MOL1         0.1053
     114    H54     22.134097   15.766390   22.726619 H          1 MOL1         0.0783
     115    O28     23.893176   14.967911   23.497216 O.3        1 MOL1        -0.5519
     116    H55     23.473662   14.317623   24.105682 H          1 MOL1         0.3769
     117    C34     23.662888   15.779168   21.195521 C.3        1 MOL1         0.1018
     118    H56     24.667384   15.353174   21.070136 H          1 MOL1         0.0783
     119    C35     22.884002   15.608366   19.861314 C.3        1 MOL1         0.1043
     120    H57     22.053369   16.321810   19.847548 H          1 MOL1         0.0783
     121    O29     22.375843   14.256642   19.735547 O.3        1 MOL1        -0.3740
     122    C36     23.778213   15.893707   18.636477 C.3        1 MOL1         0.0138
     123    H58     24.592451   15.157560   18.602519 H          1 MOL1         0.0794
     124    H59     24.231269   16.888332   18.744918 H          1 MOL1         0.0794
     125    O30     23.003655   15.838397   17.436926 O.3        1 MOL1        -0.5486
     126    H60     22.549062   14.967470   17.448719 H          1 MOL1         0.3769
     127    N1      20.646356   18.276135   14.115803 N.4        1 MOL1        -0.5940
     128    H1      20.788429   19.275581   13.938682 H          1 MOL1         0.3649
     129    H2      19.657253   18.074953   13.937760 H          1 MOL1         0.3649
     130    H3      21.188672   17.765865   13.410876 H          1 MOL1         0.3649
     131    C1      21.053009   17.891927   15.523722 C.3        1 MOL1         0.0207
     132    H4      22.119493   18.103852   15.640120 H          1 MOL1         0.0950
     133    H5      20.906715   16.814340   15.638128 H          1 MOL1         0.0950
     134    C2      20.255887   18.639572   16.606351 C.3        1 MOL1        -0.1415
     135    H6      20.392744   19.722583   16.483720 H          1 MOL1         0.0976
     136    H7      19.183908   18.433346   16.483715 H          1 MOL1         0.0976
     137    C3      20.708241   18.215294   18.018575 C.3        1 MOL1        -0.1375
     138    H8      21.783006   18.414069   18.133012 H          1 MOL1         0.0976
     139    H9      20.569404   17.131459   18.133991 H          1 MOL1         0.0976
     140    C4      19.923656   18.954063   19.122128 C.3        1 MOL1        -0.1375
     141    H10     18.855623   18.733182   19.012445 H          1 MOL1         0.0976
     142    H11     20.036963   20.037761   18.991490 H          1 MOL1         0.0976
     143    C5      20.401840   18.539694   20.529586 C.3        1 MOL1        -0.1350
     144    H12     21.478523   18.733138   20.622126 H          1 MOL1         0.0976
     145    H13     20.260514   17.460153   20.659543 H          1 MOL1         0.0976
     146    C6      19.648138   19.284601   21.648436 C.3        1 MOL1        -0.2365
     147    H14     19.994420   18.953147   22.636112 H          1 MOL1         0.0987
     148    H15     18.568115   19.096702   21.590905 H          1 MOL1         0.0987
     149    H16     19.816773   20.365969   21.580183 H          1 MOL1         0.0987
@<TRIPOS>BOND
    1     1     2    1
    2     1     3    1
    3     1     4    1
    4     4     5    1
    5     4     6    1
    6     6     7    1
    7     4     8    1
    8     8     9    1
    9     8    10    1
   10    10    11    1
   11     8    12    1
   12    12    13    1
   13    12    14    1
   14    14    15    1
   15     1    16    1
   16    14    16    1
   17    14    17    1
   18    17    18    1
   19    17    19    1
   20    17    20    1
   21    20    21    1
   22    22    23    1
   23    22    24    1
   24    22    25    1
   25    25    26    1
   26    25    27    1
   27    27    28    1
   28    25    29    1
   29    29    30    1
   30    29    31    1
   31    31    32    1
   32     3    33    1
   33    29    33    1
   34    33    34    1
   35    33    35    1
   36    35    36    1
   37    22    37    1
   38    35    37    1
   39    35    38    1
   40    38    39    1
   41    38    40    1
   42    38    41    1
   43    41    42    1
   44    43    44    1
   45    43    45    1
   46    43    46    1
   47    46    47    1
   48    46    48    1
   49    48    49    1
   50    46    50    1
   51    50    51    1
   52    50    52    1
   53    52    53    1
   54    24    54    1
   55    50    54    1
   56    54    55    1
   57    54    56    1
   58    56    57    1
   59    43    58    1
   60    56    58    1
   61    56    59    1
   62    59    60    1
   63    59    61    1
   64    59    62    1
   65    62    63    1
   66    64    65    1
   67    64    66    1
   68    64    67    1
   69    67    68    1
   70    67    69    1
   71    69    70    1
   72    67    71    1
   73    71    72    1
   74    71    73    1
   75    73    74    1
   76    45    75    1
   77    71    75    1
   78    75    76    1
   79    75    77    1
   80    77    78    1
   81    64    79    1
   82    77    79    1
   83    77    80    1
   84    80    81    1
   85    80    82    1
   86    80    83    1
   87    83    84    1
   88    85    86    1
   89    85    87    1
   90    85    88    1
   91    88    89    1
   92    88    90    1
   93    90    91    1
   94    88    92    1
   95    92    93    1
   96    92    94    1
   97    94    95    1
   98    66    96    1
   99    92    96    1
  100    96    97    1
  101    96    98    1
  102    98    99    1
  103    85   100    1
  104    98   100    1
  105    98   101    1
  106   101   102    1
  107   101   103    1
  108   101   104    1
  109   104   105    1
  110   106   107    1
  111    12   108    1
  112   106   108    1
  113   106   109    1
  114   109   110    1
  115   109   111    1
  116   111   112    1
  117   109   113    1
  118   113   114    1
  119   113   115    1
  120   115   116    1
  121    87   117    1
  122   113   117    1
  123   117   118    1
  124   117   119    1
  125   119   120    1
  126   106   121    1
  127   119   121    1
  128   119   122    1
  129   122   123    1
  130   122   124    1
  131   122   125    1
  132   125   126    1
  133   127   128    1
  134   127   129    1
  135   127   130    1
  136   127   131    1
  137   131   132    1
  138   131   133    1
  139   131   134    1
  140   134   135    1
  141   134   136    1
  142   134   137    1
  143   137   138    1
  144   137   139    1
  145   137   140    1
  146   140   141    1
  147   140   142    1
  148   140   143    1
  149   143   144    1
  150   143   145    1
  151   143   146    1
  152   146   147    1
  153   146   148    1
  154   146   149    1
@<TRIPOS>SUBSTRUCTURE
       1 MOL1            1 RESIDUE      1      MOL     
       2 MOL1          149 RESIDUE      1      MOL     
@<SCITEGIC>MOL_PROPERTY
VM2 Rank
SciTegic.value.IntegerValue
4

@<SCITEGIC>MOL_PROPERTY
Conf_Id
SciTegic.value.IntegerValue
6941

@<SCITEGIC>MOL_PROPERTY
Probability
SciTegic.value.DoubleValue
1.37

@<SCITEGIC>MOL_PROPERTY
Sum Probability
SciTegic.value.DoubleValue
6.54

@<SCITEGIC>MOL_PROPERTY
Delta G
SciTegic.value.DoubleValue
0.220

@<SCITEGIC>MOL_PROPERTY
G
SciTegic.value.DoubleValue
557.301

@<SCITEGIC>MOL_PROPERTY
E
SciTegic.value.DoubleValue
361.032

@<SCITEGIC>MOL_PROPERTY
-TS
SciTegic.value.DoubleValue
196.269

@<SCITEGIC>MOL_PROPERTY
U+W
SciTegic.value.DoubleValue
229.578

@<SCITEGIC>MOL_PROPERTY
U
SciTegic.value.DoubleValue
304.216

@<SCITEGIC>MOL_PROPERTY
W
SciTegic.value.DoubleValue
-74.638

@<SCITEGIC>MOL_PROPERTY
W(PB)
SciTegic.value.DoubleValue
-80.890

@<SCITEGIC>MOL_PROPERTY
W(SA)
SciTegic.value.DoubleValue
6.252

@<SCITEGIC>MOL_PROPERTY
Valence
SciTegic.value.DoubleValue
144.909

@<SCITEGIC>MOL_PROPERTY
Coulomb
SciTegic.value.DoubleValue
180.547

@<SCITEGIC>MOL_PROPERTY
VdW
SciTegic.value.DoubleValue
-21.240

@<SCITEGIC>MOL_PROPERTY
VdW6
SciTegic.value.DoubleValue
-169.149

@<SCITEGIC>MOL_PROPERTY
VdW12
SciTegic.value.DoubleValue
147.910

@<SCITEGIC>MOL_PROPERTY
Bond
SciTegic.value.DoubleValue
4.433

@<SCITEGIC>MOL_PROPERTY
Angle
SciTegic.value.DoubleValue
10.235

@<SCITEGIC>MOL_PROPERTY
Pdih
SciTegic.value.DoubleValue
130.242

@<SCITEGIC>MOL_PROPERTY
Idih
SciTegic.value.DoubleValue
0.000

@<SCITEGIC>MOL_PROPERTY
Tether
SciTegic.value.DoubleValue
0.000

@<TRIPOS>MOLECULE
CD_guest-2_vm2_rndm.mol2 : vm2 host+ligand conformer 5
         149         154           2
SMALL
USER_CHARGES
 
@<TRIPOS>ATOM
       1    C1      16.189091   15.204642   21.821595 C.3        1 MOL1         0.2972
       2    H1      15.135569   15.028894   22.074814 H          1 MOL1         0.0751
       3    O1      16.392163   16.508140   21.241058 O.3        1 MOL1        -0.3740
       4    C2      17.081869   15.068146   23.081940 C.3        1 MOL1         0.1003
       5    H2      16.986920   14.034251   23.438710 H          1 MOL1         0.0783
       6    O2      16.676572   15.964467   24.128600 O.3        1 MOL1        -0.5519
       7    H3      15.891728   16.467405   23.800170 H          1 MOL1         0.3769
       8    C3      18.562698   15.317788   22.722467 C.3        1 MOL1         0.1053
       9    H4      18.658050   16.370895   22.431391 H          1 MOL1         0.0783
      10    O3      19.375784   15.055257   23.870381 O.3        1 MOL1        -0.5519
      11    H5      18.902203   15.494517   24.612543 H          1 MOL1         0.3769
      12    C4      19.021552   14.443714   21.528922 C.3        1 MOL1         0.1018
      13    H6      19.181754   13.418137   21.886864 H          1 MOL1         0.0783
      14    C5      17.997171   14.439237   20.356891 C.3        1 MOL1         0.1043
      15    H7      18.051065   15.411785   19.849764 H          1 MOL1         0.0783
      16    O4      16.653406   14.228809   20.864058 O.3        1 MOL1        -0.3740
      17    C6      18.276488   13.351350   19.296222 C.3        1 MOL1         0.0138
      18    H8      19.233734   13.568422   18.804183 H          1 MOL1         0.0794
      19    H9      17.495949   13.401215   18.525195 H          1 MOL1         0.0794
      20    O5      18.309222   12.048562   19.885720 O.3        1 MOL1        -0.5486
      21    H10     17.437447   11.920335   20.321678 H          1 MOL1         0.3769
      22    C7      14.676274   20.160541   20.593851 C.3        1 MOL1         0.2972
      23    H11     14.074273   21.041069   20.334495 H          1 MOL1         0.0751
      24    O6      16.060153   20.513751   20.818582 O.3        1 MOL1        -0.3740
      25    C8      14.097600   19.429866   21.834481 C.3        1 MOL1         0.1003
      26    H12     13.102156   19.062228   21.552946 H          1 MOL1         0.0783
      27    O7      13.961092   20.300146   22.966889 O.3        1 MOL1        -0.5519
      28    H13     14.877792   20.555204   23.241456 H          1 MOL1         0.3769
      29    C9      14.971256   18.204938   22.193548 C.3        1 MOL1         0.1053
      30    H14     15.946171   18.574247   22.541412 H          1 MOL1         0.0783
      31    O8      14.332414   17.464285   23.237996 O.3        1 MOL1        -0.5519
      32    H15     13.983460   18.144475   23.857937 H          1 MOL1         0.3769
      33    C10     15.215277   17.288859   20.963774 C.3        1 MOL1         0.1018
      34    H16     14.335133   16.654327   20.793631 H          1 MOL1         0.0783
      35    C11     15.527252   18.068166   19.657300 C.3        1 MOL1         0.1043
      36    H17     16.567102   18.411122   19.697278 H          1 MOL1         0.0783
      37    O9      14.636611   19.202680   19.516199 O.3        1 MOL1        -0.3740
      38    C12     15.360591   17.176535   18.408965 C.3        1 MOL1         0.0138
      39    H18     14.311584   16.862335   18.325426 H          1 MOL1         0.0794
      40    H19     15.971721   16.271699   18.527717 H          1 MOL1         0.0794
      41    O10     15.764319   17.887502   17.237414 O.3        1 MOL1        -0.5486
      42    H20     15.258792   18.730373   17.243175 H          1 MOL1         0.3769
      43    C13     18.520233   23.714393   21.862202 C.3        1 MOL1         0.2972
      44    H21     18.903790   24.684252   22.203072 H          1 MOL1         0.0751
      45    O11     19.551679   22.929344   21.231019 O.3        1 MOL1        -0.3740
      46    C14     17.933998   22.914547   23.056313 C.3        1 MOL1         0.1003
      47    H22     17.134658   23.528179   23.491901 H          1 MOL1         0.0783
      48    O12     18.925055   22.651105   24.062667 O.3        1 MOL1        -0.5519
      49    H23     19.623031   23.342823   23.969613 H          1 MOL1         0.3769
      50    C15     17.312519   21.581876   22.580408 C.3        1 MOL1         0.1053
      51    H24     18.124707   20.942220   22.215938 H          1 MOL1         0.0783
      52    O13     16.665491   20.957044   23.692279 O.3        1 MOL1        -0.5519
      53    H25     17.315857   21.033838   24.426791 H          1 MOL1         0.3769
      54    C16     16.314379   21.801592   21.416194 C.3        1 MOL1         0.1018
      55    H26     15.398579   22.256893   21.815776 H          1 MOL1         0.0783
      56    C17     16.911309   22.711637   20.307670 C.3        1 MOL1         0.1043
      57    H27     17.706759   22.155433   19.793889 H          1 MOL1         0.0783
      58    O14     17.461174   23.914355   20.900895 O.3        1 MOL1        -0.3740
      59    C18     15.875691   23.140432   19.244271 C.3        1 MOL1         0.0138
      60    H28     15.527664   22.249534   18.704726 H          1 MOL1         0.0794
      61    H29     16.369942   23.793141   18.512291 H          1 MOL1         0.0794
      62    O15     14.766980   23.816717   19.844281 O.3        1 MOL1        -0.5486
      63    H30     15.142460   24.584912   20.329460 H          1 MOL1         0.3769
      64    C19     23.692589   22.825682   21.065607 C.3        1 MOL1         0.2972
      65    H31     24.762886   23.002171   20.897102 H          1 MOL1         0.0751
      66    O16     23.422910   21.455742   21.419688 O.3        1 MOL1        -0.3740
      67    C20     23.140845   23.736692   22.190113 C.3        1 MOL1         0.1003
      68    H32     23.265167   24.775040   21.855986 H          1 MOL1         0.0783
      69    O17     23.860159   23.554210   23.419687 O.3        1 MOL1        -0.5519
      70    H33     23.830786   22.589151   23.642410 H          1 MOL1         0.3769
      71    C21     21.627666   23.482899   22.404426 C.3        1 MOL1         0.1053
      72    H34     21.507838   22.468828   22.810852 H          1 MOL1         0.0783
      73    O18     21.138022   24.443213   23.347094 O.3        1 MOL1        -0.5519
      74    H35     21.852542   24.523582   24.019915 H          1 MOL1         0.3769
      75    C22     20.837819   23.563048   21.063936 C.3        1 MOL1         0.1018
      76    H36     20.726383   24.612986   20.761949 H          1 MOL1         0.0783
      77    C23     21.537278   22.786647   19.916239 C.3        1 MOL1         0.1043
      78    H37     21.420626   21.711833   20.097233 H          1 MOL1         0.0783
      79    O19     22.943309   23.130460   19.870888 O.3        1 MOL1        -0.3740
      80    C24     20.924401   23.105455   18.537169 C.3        1 MOL1         0.0138
      81    H38     21.150087   24.146508   18.269838 H          1 MOL1         0.0794
      82    H39     19.832321   23.004795   18.594086 H          1 MOL1         0.0794
      83    O20     21.445374   22.206255   17.556028 O.3        1 MOL1        -0.5486
      84    H40     22.423239   22.302947   17.593738 H          1 MOL1         0.3769
      85    C25     24.996209   17.772017   22.138372 C.3        1 MOL1         0.2972
      86    H41     25.577162   16.866622   22.356933 H          1 MOL1         0.0751
      87    O21     23.688768   17.455398   21.614430 O.3        1 MOL1        -0.3740
      88    C26     24.834690   18.624531   23.421260 C.3        1 MOL1         0.1003
      89    H42     25.839857   18.930517   23.739361 H          1 MOL1         0.0783
      90    O22     24.213973   17.871722   24.475584 O.3        1 MOL1        -0.5519
      91    H43     24.016453   16.972597   24.114379 H          1 MOL1         0.3769
      92    C27     24.014045   19.899757   23.127743 C.3        1 MOL1         0.1053
      93    H44     22.984480   19.584831   22.931429 H          1 MOL1         0.0783
      94    O23     24.031467   20.753290   24.275276 O.3        1 MOL1        -0.5519
      95    H45     23.852330   20.153882   25.034418 H          1 MOL1         0.3769
      96    C28     24.534150   20.669501   21.885443 C.3        1 MOL1         0.1018
      97    H46     25.384016   21.294452   22.190868 H          1 MOL1         0.0783
      98    C29     24.941507   19.747926   20.699005 C.3        1 MOL1         0.1043
      99    H47     24.022068   19.415056   20.200359 H          1 MOL1         0.0783
     100    O24     25.679573   18.591993   21.168749 O.3        1 MOL1        -0.3740
     101    C30     25.806266   20.462384   19.637013 C.3        1 MOL1         0.0138
     102    H48     25.218906   21.269965   19.180410 H          1 MOL1         0.0794
     103    H49     26.050571   19.746693   18.840591 H          1 MOL1         0.0794
     104    O25     27.003696   20.989420   20.215202 O.3        1 MOL1        -0.5486
     105    H50     27.469628   20.227859   20.627060 H          1 MOL1         0.3769
     106    C31     21.321286   14.143730   20.723161 C.3        1 MOL1         0.2972
     107    H51     20.946582   13.171572   20.377884 H          1 MOL1         0.0751
     108    O26     20.238075   15.041292   21.038521 O.3        1 MOL1        -0.3740
     109    C32     22.250647   13.976181   21.957719 C.3        1 MOL1         0.1003
     110    H52     23.088870   13.341756   21.641444 H          1 MOL1         0.0783
     111    O27     21.581767   13.340432   23.057316 O.3        1 MOL1        -0.5519
     112    H53     20.840109   13.938221   23.329472 H          1 MOL1         0.3769
     113    C33     22.832203   15.339898   22.401802 C.3        1 MOL1         0.1053
     114    H54     22.004613   15.954985   22.780974 H          1 MOL1         0.0783
     115    O28     23.793464   15.124918   23.440340 O.3        1 MOL1        -0.5519
     116    H55     23.392149   14.439720   24.021680 H          1 MOL1         0.3769
     117    C34     23.483861   16.088587   21.209633 C.3        1 MOL1         0.1018
     118    H56     24.429444   15.601622   20.935650 H          1 MOL1         0.0783
     119    C35     22.561648   16.113691   19.963035 C.3        1 MOL1         0.1043
     120    H57     21.712928   16.778520   20.164032 H          1 MOL1         0.0783
     121    O29     22.101656   14.767761   19.682161 O.3        1 MOL1        -0.3740
     122    C36     23.289781   16.624485   18.702824 C.3        1 MOL1         0.0138
     123    H58     24.083127   15.916041   18.429450 H          1 MOL1         0.0794
     124    H59     23.765232   17.588586   18.920829 H          1 MOL1         0.0794
     125    O30     22.357533   16.774362   17.630484 O.3        1 MOL1        -0.5486
     126    H60     21.897570   15.910433   17.548438 H          1 MOL1         0.3769
     127    N1      19.669528   20.285472   16.258725 N.4        1 MOL1        -0.5940
     128    H1      19.997743   20.428661   15.298774 H          1 MOL1         0.3649
     129    H2      20.275249   20.868849   16.860383 H          1 MOL1         0.3649
     130    H3      18.722077   20.668907   16.315306 H          1 MOL1         0.3649
     131    C1      19.712570   18.821624   16.652215 C.3        1 MOL1         0.0207
     132    H4      20.751414   18.483792   16.594037 H          1 MOL1         0.0950
     133    H5      19.130312   18.263882   15.913823 H          1 MOL1         0.0950
     134    C2      19.152876   18.533839   18.057695 C.3        1 MOL1        -0.1415
     135    H6      18.112682   18.875076   18.111586 H          1 MOL1         0.0976
     136    H7      19.139959   17.446093   18.207595 H          1 MOL1         0.0976
     137    C3      19.982800   19.199905   19.176438 C.3        1 MOL1        -0.1375
     138    H8      19.885290   20.290422   19.107135 H          1 MOL1         0.0976
     139    H9      21.045588   18.963231   19.026113 H          1 MOL1         0.0976
     140    C4      19.545306   18.734600   20.583639 C.3        1 MOL1        -0.1375
     141    H10     19.581148   17.639019   20.634930 H          1 MOL1         0.0976
     142    H11     18.503648   19.026539   20.770677 H          1 MOL1         0.0976
     143    C5      20.456364   19.330720   21.676355 C.3        1 MOL1        -0.1350
     144    H12     20.361389   20.423392   21.683368 H          1 MOL1         0.0976
     145    H13     21.502243   19.106527   21.432956 H          1 MOL1         0.0976
     146    C6      20.127197   18.786277   23.081476 C.3        1 MOL1        -0.2365
     147    H14     19.064423   18.919406   23.322782 H          1 MOL1         0.0987
     148    H15     20.713445   19.311542   23.846562 H          1 MOL1         0.0987
     149    H16     20.367334   17.718758   23.154686 H          1 MOL1         0.0987
@<TRIPOS>BOND
    1     1     2    1
    2     1     3    1
    3     1     4    1
    4     4     5    1
    5     4     6    1
    6     6     7    1
    7     4     8    1
    8     8     9    1
    9     8    10    1
   10    10    11    1
   11     8    12    1
   12    12    13    1
   13    12    14    1
   14    14    15    1
   15     1    16    1
   16    14    16    1
   17    14    17    1
   18    17    18    1
   19    17    19    1
   20    17    20    1
   21    20    21    1
   22    22    23    1
   23    22    24    1
   24    22    25    1
   25    25    26    1
   26    25    27    1
   27    27    28    1
   28    25    29    1
   29    29    30    1
   30    29    31    1
   31    31    32    1
   32     3    33    1
   33    29    33    1
   34    33    34    1
   35    33    35    1
   36    35    36    1
   37    22    37    1
   38    35    37    1
   39    35    38    1
   40    38    39    1
   41    38    40    1
   42    38    41    1
   43    41    42    1
   44    43    44    1
   45    43    45    1
   46    43    46    1
   47    46    47    1
   48    46    48    1
   49    48    49    1
   50    46    50    1
   51    50    51    1
   52    50    52    1
   53    52    53    1
   54    24    54    1
   55    50    54    1
   56    54    55    1
   57    54    56    1
   58    56    57    1
   59    43    58    1
   60    56    58    1
   61    56    59    1
   62    59    60    1
   63    59    61    1
   64    59    62    1
   65    62    63    1
   66    64    65    1
   67    64    66    1
   68    64    67    1
   69    67    68    1
   70    67    69    1
   71    69    70    1
   72    67    71    1
   73    71    72    1
   74    71    73    1
   75    73    74    1
   76    45    75    1
   77    71    75    1
   78    75    76    1
   79    75    77    1
   80    77    78    1
   81    64    79    1
   82    77    79    1
   83    77    80    1
   84    80    81    1
   85    80    82    1
   86    80    83    1
   87    83    84    1
   88    85    86    1
   89    85    87    1
   90    85    88    1
   91    88    89    1
   92    88    90    1
   93    90    91    1
   94    88    92    1
   95    92    93    1
   96    92    94    1
   97    94    95    1
   98    66    96    1
   99    92    96    1
  100    96    97    1
  101    96    98    1
  102    98    99    1
  103    85   100    1
  104    98   100    1
  105    98   101    1
  106   101   102    1
  107   101   103    1
  108   101   104    1
  109   104   105    1
  110   106   107    1
  111    12   108    1
  112   106   108    1
  113   106   109    1
  114   109   110    1
  115   109   111    1
  116   111   112    1
  117   109   113    1
  118   113   114    1
  119   113   115    1
  120   115   116    1
  121    87   117    1
  122   113   117    1
  123   117   118    1
  124   117   119    1
  125   119   120    1
  126   106   121    1
  127   119   121    1
  128   119   122    1
  129   122   123    1
  130   122   124    1
  131   122   125    1
  132   125   126    1
  133   127   128    1
  134   127   129    1
  135   127   130    1
  136   127   131    1
  137   131   132    1
  138   131   133    1
  139   131   134    1
  140   134   135    1
  141   134   136    1
  142   134   137    1
  143   137   138    1
  144   137   139    1
  145   137   140    1
  146   140   141    1
  147   140   142    1
  148   140   143    1
  149   143   144    1
  150   143   145    1
  151   143   146    1
  152   146   147    1
  153   146   148    1
  154   146   149    1
@<TRIPOS>SUBSTRUCTURE
       1 MOL1            1 RESIDUE      1      MOL     
       2 MOL1          149 RESIDUE      1      MOL     
@<SCITEGIC>MOL_PROPERTY
VM2 Rank
SciTegic.value.IntegerValue
5

@<SCITEGIC>MOL_PROPERTY
Conf_Id
SciTegic.value.IntegerValue
21155

@<SCITEGIC>MOL_PROPERTY
Probability
SciTegic.value.DoubleValue
1.17

@<SCITEGIC>MOL_PROPERTY
Sum Probability
SciTegic.value.DoubleValue
7.72

@<SCITEGIC>MOL_PROPERTY
Delta G
SciTegic.value.DoubleValue
0.313

@<SCITEGIC>MOL_PROPERTY
G
SciTegic.value.DoubleValue
557.395

@<SCITEGIC>MOL_PROPERTY
E
SciTegic.value.DoubleValue
358.653

@<SCITEGIC>MOL_PROPERTY
-TS
SciTegic.value.DoubleValue
198.742

@<SCITEGIC>MOL_PROPERTY
U+W
SciTegic.value.DoubleValue
227.199

@<SCITEGIC>MOL_PROPERTY
U
SciTegic.value.DoubleValue
296.286

@<SCITEGIC>MOL_PROPERTY
W
SciTegic.value.DoubleValue
-69.087

@<SCITEGIC>MOL_PROPERTY
W(PB)
SciTegic.value.DoubleValue
-75.109

@<SCITEGIC>MOL_PROPERTY
W(SA)
SciTegic.value.DoubleValue
6.022

@<SCITEGIC>MOL_PROPERTY
Valence
SciTegic.value.DoubleValue
146.137

@<SCITEGIC>MOL_PROPERTY
Coulomb
SciTegic.value.DoubleValue
174.347

@<SCITEGIC>MOL_PROPERTY
VdW
SciTegic.value.DoubleValue
-24.197

@<SCITEGIC>MOL_PROPERTY
VdW6
SciTegic.value.DoubleValue
-176.769

@<SCITEGIC>MOL_PROPERTY
VdW12
SciTegic.value.DoubleValue
152.572

@<SCITEGIC>MOL_PROPERTY
Bond
SciTegic.value.DoubleValue
4.391

@<SCITEGIC>MOL_PROPERTY
Angle
SciTegic.value.DoubleValue
10.220

@<SCITEGIC>MOL_PROPERTY
Pdih
SciTegic.value.DoubleValue
131.525

@<SCITEGIC>MOL_PROPERTY
Idih
SciTegic.value.DoubleValue
0.000

@<SCITEGIC>MOL_PROPERTY
Tether
SciTegic.value.DoubleValue
0.000

@<TRIPOS>MOLECULE
CD_guest-2_vm2_rndm.mol2 : vm2 host+ligand conformer 6
         149         154           2
SMALL
USER_CHARGES
 
@<TRIPOS>ATOM
       1    C1      16.251998   15.184036   21.457212 C.3        1 MOL1         0.2972
       2    H1      15.196732   14.883368   21.459841 H          1 MOL1         0.0751
       3    O1      16.401213   16.614820   21.380991 O.3        1 MOL1        -0.3740
       4    C2      16.946505   14.693699   22.754072 C.3        1 MOL1         0.1003
       5    H2      16.845534   13.600915   22.782926 H          1 MOL1         0.0783
       6    O2      16.324868   15.246724   23.924820 O.3        1 MOL1        -0.5519
       7    H3      15.881257   16.090151   23.656834 H          1 MOL1         0.3769
       8    C3      18.457576   15.025651   22.734489 C.3        1 MOL1         0.1053
       9    H4      18.577126   16.117574   22.758499 H          1 MOL1         0.0783
      10    O3      19.073053   14.440469   23.884848 O.3        1 MOL1        -0.5519
      11    H5      18.469052   14.660683   24.629708 H          1 MOL1         0.3769
      12    C4      19.109354   14.485564   21.437828 C.3        1 MOL1         0.1018
      13    H6      19.098081   13.387945   21.472847 H          1 MOL1         0.0783
      14    C5      18.335770   14.971208   20.182225 C.3        1 MOL1         0.1043
      15    H7      18.436642   16.060863   20.104294 H          1 MOL1         0.0783
      16    O4      16.940137   14.602947   20.326706 O.3        1 MOL1        -0.3740
      17    C6      18.856999   14.341870   18.872632 C.3        1 MOL1         0.0138
      18    H8      18.693914   13.256218   18.899179 H          1 MOL1         0.0794
      19    H9      19.937674   14.516016   18.790619 H          1 MOL1         0.0794
      20    O5      18.193448   14.924804   17.748779 O.3        1 MOL1        -0.5486
      21    H10     17.233152   14.769756   17.886288 H          1 MOL1         0.3769
      22    C7      14.528918   20.218915   20.831416 C.3        1 MOL1         0.2972
      23    H11     13.887437   21.082196   20.611695 H          1 MOL1         0.0751
      24    O6      15.909300   20.607313   21.000889 O.3        1 MOL1        -0.3740
      25    C8      14.040891   19.452871   22.087915 C.3        1 MOL1         0.1003
      26    H12     13.054926   19.034054   21.847564 H          1 MOL1         0.0783
      27    O7      13.907944   20.311132   23.229567 O.3        1 MOL1        -0.5519
      28    H13     14.814588   20.644650   23.446789 H          1 MOL1         0.3769
      29    C9      14.997645   18.274597   22.389297 C.3        1 MOL1         0.1053
      30    H14     15.973741   18.690442   22.675871 H          1 MOL1         0.0783
      31    O8      14.470936   17.496409   23.467046 O.3        1 MOL1        -0.5519
      32    H15     14.161790   18.152110   24.131773 H          1 MOL1         0.3769
      33    C10     15.199832   17.374379   21.141721 C.3        1 MOL1         0.1018
      34    H16     14.317217   16.732045   21.022425 H          1 MOL1         0.0783
      35    C11     15.419269   18.174198   19.827316 C.3        1 MOL1         0.1043
      36    H17     16.444557   18.561944   19.819596 H          1 MOL1         0.0783
      37    O9      14.475450   19.272000   19.744953 O.3        1 MOL1        -0.3740
      38    C12     15.222646   17.296359   18.574431 C.3        1 MOL1         0.0138
      39    H18     14.187691   16.930296   18.545584 H          1 MOL1         0.0794
      40    H19     15.885460   16.424126   18.637056 H          1 MOL1         0.0794
      41    O10     15.520431   18.049826   17.397783 O.3        1 MOL1        -0.5486
      42    H20     14.989488   18.874344   17.461485 H          1 MOL1         0.3769
      43    C13     18.474551   23.743321   21.771759 C.3        1 MOL1         0.2972
      44    H21     18.942504   24.703916   22.019987 H          1 MOL1         0.0751
      45    O11     19.418909   22.822141   21.187099 O.3        1 MOL1        -0.3740
      46    C14     17.872972   23.089901   23.041032 C.3        1 MOL1         0.1003
      47    H22     17.114419   23.779688   23.433479 H          1 MOL1         0.0783
      48    O12     18.874497   22.866297   24.047107 O.3        1 MOL1        -0.5519
      49    H23     19.621454   23.481999   23.852577 H          1 MOL1         0.3769
      50    C15     17.179006   21.755678   22.685340 C.3        1 MOL1         0.1053
      51    H24     17.950363   21.051011   22.354429 H          1 MOL1         0.0783
      52    O13     16.537199   21.246574   23.856715 O.3        1 MOL1        -0.5519
      53    H25     17.204831   21.364057   24.570329 H          1 MOL1         0.3769
      54    C16     16.165545   21.923709   21.524388 C.3        1 MOL1         0.1018
      55    H26     15.254788   22.401089   21.909873 H          1 MOL1         0.0783
      56    C17     16.747792   22.751789   20.344210 C.3        1 MOL1         0.1043
      57    H27     17.484190   22.129376   19.818842 H          1 MOL1         0.0783
      58    O14     17.395317   23.950373   20.836065 O.3        1 MOL1        -0.3740
      59    C18     15.678584   23.178786   19.314118 C.3        1 MOL1         0.0138
      60    H28     15.252729   22.280434   18.847645 H          1 MOL1         0.0794
      61    H29     16.165106   23.760244   18.519554 H          1 MOL1         0.0794
      62    O15     14.644313   23.950072   19.932024 O.3        1 MOL1        -0.5486
      63    H30     15.088116   24.720920   20.350910 H          1 MOL1         0.3769
      64    C19     23.567247   22.573370   20.772452 C.3        1 MOL1         0.2972
      65    H31     24.616693   22.745337   20.500303 H          1 MOL1         0.0751
      66    O16     23.363376   21.248822   21.297309 O.3        1 MOL1        -0.3740
      67    C20     23.088835   23.599156   21.831544 C.3        1 MOL1         0.1003
      68    H32     23.193635   24.596693   21.385292 H          1 MOL1         0.0783
      69    O17     23.884568   23.537930   23.026038 O.3        1 MOL1        -0.5519
      70    H33     23.851777   22.604935   23.358044 H          1 MOL1         0.3769
      71    C21     21.592689   23.383812   22.169080 C.3        1 MOL1         0.1053
      72    H34     21.493506   22.413158   22.674318 H          1 MOL1         0.0783
      73    O18     21.174570   24.433263   23.049157 O.3        1 MOL1        -0.5519
      74    H35     21.933277   24.564995   23.662858 H          1 MOL1         0.3769
      75    C22     20.725188   23.347729   20.876270 C.3        1 MOL1         0.1018
      76    H36     20.652826   24.356599   20.448598 H          1 MOL1         0.0783
      77    C23     21.325497   22.394956   19.809047 C.3        1 MOL1         0.1043
      78    H37     21.218291   21.360170   20.158451 H          1 MOL1         0.0783
      79    O19     22.723462   22.719667   19.610680 O.3        1 MOL1        -0.3740
      80    C24     20.614732   22.517765   18.444821 C.3        1 MOL1         0.0138
      81    H38     20.797686   23.517195   18.028172 H          1 MOL1         0.0794
      82    H39     19.531933   22.408801   18.588194 H          1 MOL1         0.0794
      83    O20     21.087517   21.505627   17.553741 O.3        1 MOL1        -0.5486
      84    H40     22.065856   21.588247   17.540376 H          1 MOL1         0.3769
      85    C25     25.162346   17.741999   22.298465 C.3        1 MOL1         0.2972
      86    H41     25.784174   16.882253   22.579966 H          1 MOL1         0.0751
      87    O21     23.857700   17.336792   21.839393 O.3        1 MOL1        -0.3740
      88    C26     24.976603   18.690545   23.506478 C.3        1 MOL1         0.1003
      89    H42     25.965773   19.083841   23.774852 H          1 MOL1         0.0783
      90    O22     24.422545   17.988129   24.630831 O.3        1 MOL1        -0.5519
      91    H43     24.152454   17.092851   24.309539 H          1 MOL1         0.3769
      92    C27     24.071100   19.882027   23.119091 C.3        1 MOL1         0.1053
      93    H44     23.059814   19.488387   22.968808 H          1 MOL1         0.0783
      94    O23     24.050748   20.835510   24.185447 O.3        1 MOL1        -0.5519
      95    H45     23.913421   20.299925   24.998757 H          1 MOL1         0.3769
      96    C28     24.526370   20.569200   21.804316 C.3        1 MOL1         0.1018
      97    H46     25.341295   21.266587   22.040349 H          1 MOL1         0.0783
      98    C29     24.975696   19.575116   20.692744 C.3        1 MOL1         0.1043
      99    H47     24.072101   19.148344   20.237782 H          1 MOL1         0.0783
     100    O24     25.785836   18.508419   21.248349 O.3        1 MOL1        -0.3740
     101    C30     25.786603   20.240215   19.558477 C.3        1 MOL1         0.0138
     102    H48     25.144582   20.957814   19.031010 H          1 MOL1         0.0794
     103    H49     26.075919   19.468752   18.832318 H          1 MOL1         0.0794
     104    O25     26.947905   20.899725   20.070423 O.3        1 MOL1        -0.5486
     105    H50     27.469358   20.213652   20.543711 H          1 MOL1         0.3769
     106    C31     21.496310   14.043958   21.090919 C.3        1 MOL1         0.2972
     107    H51     21.086792   13.068205   20.801112 H          1 MOL1         0.0751
     108    O26     20.452810   15.004415   21.369739 O.3        1 MOL1        -0.3740
     109    C32     22.408934   13.905728   22.336460 C.3        1 MOL1         0.1003
     110    H52     23.240088   13.244178   22.059490 H          1 MOL1         0.0783
     111    O27     21.706013   13.326887   23.445284 O.3        1 MOL1        -0.5519
     112    H53     20.856284   13.826013   23.551285 H          1 MOL1         0.3769
     113    C33     23.005638   15.279567   22.721083 C.3        1 MOL1         0.1053
     114    H54     22.180322   15.927974   23.046483 H          1 MOL1         0.0783
     115    O28     23.939920   15.117996   23.792863 O.3        1 MOL1        -0.5519
     116    H55     23.512806   14.479913   24.408321 H          1 MOL1         0.3769
     117    C34     23.697080   15.948640   21.504591 C.3        1 MOL1         0.1018
     118    H56     24.659021   15.458946   21.301728 H          1 MOL1         0.0783
     119    C35     22.828289   15.904201   20.219724 C.3        1 MOL1         0.1043
     120    H57     22.006422   16.615529   20.340865 H          1 MOL1         0.0783
     121    O29     22.312828   14.565318   20.024648 O.3        1 MOL1        -0.3740
     122    C36     23.626300   16.295812   18.956556 C.3        1 MOL1         0.0138
     123    H58     24.265010   15.453032   18.660053 H          1 MOL1         0.0794
     124    H59     24.286325   17.139160   19.195200 H          1 MOL1         0.0794
     125    O30     22.745876   16.663271   17.888189 O.3        1 MOL1        -0.5486
     126    H60     23.308919   16.876571   17.112506 H          1 MOL1         0.3769
     127    N1      20.072601   16.909340   16.679619 N.4        1 MOL1        -0.5940
     128    H1      19.367937   16.210816   16.971126 H          1 MOL1         0.3649
     129    H2      20.904111   16.770698   17.277093 H          1 MOL1         0.3649
     130    H3      20.353378   16.678103   15.722598 H          1 MOL1         0.3649
     131    C1      19.538696   18.324466   16.789153 C.3        1 MOL1         0.0207
     132    H4      18.758465   18.446630   16.033159 H          1 MOL1         0.0950
     133    H5      20.354749   19.014535   16.556148 H          1 MOL1         0.0950
     134    C2      18.956674   18.659497   18.174519 C.3        1 MOL1        -0.1415
     135    H6      18.594234   19.695952   18.161841 H          1 MOL1         0.0976
     136    H7      18.088453   18.016580   18.358666 H          1 MOL1         0.0976
     137    C3      19.987308   18.477251   19.308834 C.3        1 MOL1        -0.1375
     138    H8      20.911540   19.014480   19.052785 H          1 MOL1         0.0976
     139    H9      20.246758   17.415074   19.385986 H          1 MOL1         0.0976
     140    C4      19.462692   18.976157   20.673635 C.3        1 MOL1        -0.1375
     141    H10     18.522407   18.468788   20.927258 H          1 MOL1         0.0976
     142    H11     19.238235   20.049063   20.607141 H          1 MOL1         0.0976
     143    C5      20.498487   18.724928   21.789982 C.3        1 MOL1        -0.1350
     144    H12     21.469757   19.134348   21.483495 H          1 MOL1         0.0976
     145    H13     20.638928   17.644596   21.924770 H          1 MOL1         0.0976
     146    C6      20.078045   19.350573   23.135210 C.3        1 MOL1        -0.2365
     147    H14     20.795042   19.089769   23.924304 H          1 MOL1         0.0987
     148    H15     19.088148   18.992749   23.447411 H          1 MOL1         0.0987
     149    H16     20.044468   20.445077   23.066046 H          1 MOL1         0.0987
@<TRIPOS>BOND
    1     1     2    1
    2     1     3    1
    3     1     4    1
    4     4     5    1
    5     4     6    1
    6     6     7    1
    7     4     8    1
    8     8     9    1
    9     8    10    1
   10    10    11    1
   11     8    12    1
   12    12    13    1
   13    12    14    1
   14    14    15    1
   15     1    16    1
   16    14    16    1
   17    14    17    1
   18    17    18    1
   19    17    19    1
   20    17    20    1
   21    20    21    1
   22    22    23    1
   23    22    24    1
   24    22    25    1
   25    25    26    1
   26    25    27    1
   27    27    28    1
   28    25    29    1
   29    29    30    1
   30    29    31    1
   31    31    32    1
   32     3    33    1
   33    29    33    1
   34    33    34    1
   35    33    35    1
   36    35    36    1
   37    22    37    1
   38    35    37    1
   39    35    38    1
   40    38    39    1
   41    38    40    1
   42    38    41    1
   43    41    42    1
   44    43    44    1
   45    43    45    1
   46    43    46    1
   47    46    47    1
   48    46    48    1
   49    48    49    1
   50    46    50    1
   51    50    51    1
   52    50    52    1
   53    52    53    1
   54    24    54    1
   55    50    54    1
   56    54    55    1
   57    54    56    1
   58    56    57    1
   59    43    58    1
   60    56    58    1
   61    56    59    1
   62    59    60    1
   63    59    61    1
   64    59    62    1
   65    62    63    1
   66    64    65    1
   67    64    66    1
   68    64    67    1
   69    67    68    1
   70    67    69    1
   71    69    70    1
   72    67    71    1
   73    71    72    1
   74    71    73    1
   75    73    74    1
   76    45    75    1
   77    71    75    1
   78    75    76    1
   79    75    77    1
   80    77    78    1
   81    64    79    1
   82    77    79    1
   83    77    80    1
   84    80    81    1
   85    80    82    1
   86    80    83    1
   87    83    84    1
   88    85    86    1
   89    85    87    1
   90    85    88    1
   91    88    89    1
   92    88    90    1
   93    90    91    1
   94    88    92    1
   95    92    93    1
   96    92    94    1
   97    94    95    1
   98    66    96    1
   99    92    96    1
  100    96    97    1
  101    96    98    1
  102    98    99    1
  103    85   100    1
  104    98   100    1
  105    98   101    1
  106   101   102    1
  107   101   103    1
  108   101   104    1
  109   104   105    1
  110   106   107    1
  111    12   108    1
  112   106   108    1
  113   106   109    1
  114   109   110    1
  115   109   111    1
  116   111   112    1
  117   109   113    1
  118   113   114    1
  119   113   115    1
  120   115   116    1
  121    87   117    1
  122   113   117    1
  123   117   118    1
  124   117   119    1
  125   119   120    1
  126   106   121    1
  127   119   121    1
  128   119   122    1
  129   122   123    1
  130   122   124    1
  131   122   125    1
  132   125   126    1
  133   127   128    1
  134   127   129    1
  135   127   130    1
  136   127   131    1
  137   131   132    1
  138   131   133    1
  139   131   134    1
  140   134   135    1
  141   134   136    1
  142   134   137    1
  143   137   138    1
  144   137   139    1
  145   137   140    1
  146   140   141    1
  147   140   142    1
  148   140   143    1
  149   143   144    1
  150   143   145    1
  151   143   146    1
  152   146   147    1
  153   146   148    1
  154   146   149    1
@<TRIPOS>SUBSTRUCTURE
       1 MOL1            1 RESIDUE      1      MOL     
       2 MOL1          149 RESIDUE      1      MOL     
@<SCITEGIC>MOL_PROPERTY
VM2 Rank
SciTegic.value.IntegerValue
6

@<SCITEGIC>MOL_PROPERTY
Conf_Id
SciTegic.value.IntegerValue
23140

@<SCITEGIC>MOL_PROPERTY
Probability
SciTegic.value.DoubleValue
0.88

@<SCITEGIC>MOL_PROPERTY
Sum Probability
SciTegic.value.DoubleValue
8.60

@<SCITEGIC>MOL_PROPERTY
Delta G
SciTegic.value.DoubleValue
0.482

@<SCITEGIC>MOL_PROPERTY
G
SciTegic.value.DoubleValue
557.563

@<SCITEGIC>MOL_PROPERTY
E
SciTegic.value.DoubleValue
358.326

@<SCITEGIC>MOL_PROPERTY
-TS
SciTegic.value.DoubleValue
199.237

@<SCITEGIC>MOL_PROPERTY
U+W
SciTegic.value.DoubleValue
226.872

@<SCITEGIC>MOL_PROPERTY
U
SciTegic.value.DoubleValue
291.683

@<SCITEGIC>MOL_PROPERTY
W
SciTegic.value.DoubleValue
-64.811

@<SCITEGIC>MOL_PROPERTY
W(PB)
SciTegic.value.DoubleValue
-70.713

@<SCITEGIC>MOL_PROPERTY
W(SA)
SciTegic.value.DoubleValue
5.902

@<SCITEGIC>MOL_PROPERTY
Valence
SciTegic.value.DoubleValue
147.616

@<SCITEGIC>MOL_PROPERTY
Coulomb
SciTegic.value.DoubleValue
169.545

@<SCITEGIC>MOL_PROPERTY
VdW
SciTegic.value.DoubleValue
-25.477

@<SCITEGIC>MOL_PROPERTY
VdW6
SciTegic.value.DoubleValue
-178.343

@<SCITEGIC>MOL_PROPERTY
VdW12
SciTegic.value.DoubleValue
152.866

@<SCITEGIC>MOL_PROPERTY
Bond
SciTegic.value.DoubleValue
4.252

@<SCITEGIC>MOL_PROPERTY
Angle
SciTegic.value.DoubleValue
9.676

@<SCITEGIC>MOL_PROPERTY
Pdih
SciTegic.value.DoubleValue
133.688

@<SCITEGIC>MOL_PROPERTY
Idih
SciTegic.value.DoubleValue
0.000

@<SCITEGIC>MOL_PROPERTY
Tether
SciTegic.value.DoubleValue
0.000

@<TRIPOS>MOLECULE
CD_guest-2_vm2_rndm.mol2 : vm2 host+ligand conformer 7
         149         154           2
SMALL
USER_CHARGES
 
@<TRIPOS>ATOM
       1    C1      16.190520   15.011353   21.624728 C.3        1 MOL1         0.2972
       2    H1      15.102661   14.872766   21.668144 H          1 MOL1         0.0751
       3    O1      16.550276   16.399772   21.465728 O.3        1 MOL1        -0.3740
       4    C2      16.842807   14.478765   22.924080 C.3        1 MOL1         0.1003
       5    H2      16.633947   13.402601   22.982316 H          1 MOL1         0.0783
       6    O2      16.291738   15.130596   24.079289 O.3        1 MOL1        -0.5519
       7    H3      15.897648   15.985288   23.772906 H          1 MOL1         0.3769
       8    C3      18.376066   14.666410   22.878646 C.3        1 MOL1         0.1053
       9    H4      18.575382   15.741929   22.933571 H          1 MOL1         0.0783
      10    O3      18.975668   14.017758   24.004186 O.3        1 MOL1        -0.5519
      11    H5      18.424201   14.285150   24.773232 H          1 MOL1         0.3769
      12    C4      18.989004   14.110515   21.566971 C.3        1 MOL1         0.1018
      13    H6      19.066284   13.019059   21.660148 H          1 MOL1         0.0783
      14    C5      18.172985   14.480232   20.294636 C.3        1 MOL1         0.1043
      15    H7      18.357912   15.538027   20.065320 H          1 MOL1         0.0783
      16    O4      16.756124   14.273264   20.522600 O.3        1 MOL1        -0.3740
      17    C6      18.570305   13.659486   19.047581 C.3        1 MOL1         0.0138
      18    H8      19.610593   13.887860   18.782475 H          1 MOL1         0.0794
      19    H9      17.942952   13.974427   18.202907 H          1 MOL1         0.0794
      20    O5      18.417963   12.256852   19.283051 O.3        1 MOL1        -0.5486
      21    H10     17.478820   12.120992   19.540062 H          1 MOL1         0.3769
      22    C7      14.951121   20.156651   20.666357 C.3        1 MOL1         0.2972
      23    H11     14.315541   20.993707   20.350520 H          1 MOL1         0.0751
      24    O6      16.284825   20.602346   20.985922 O.3        1 MOL1        -0.3740
      25    C8      14.333927   19.416114   21.885562 C.3        1 MOL1         0.1003
      26    H12     13.357611   19.029932   21.564997 H          1 MOL1         0.0783
      27    O7      14.137139   20.288636   23.008101 O.3        1 MOL1        -0.5519
      28    H13     15.031694   20.613485   23.282853 H          1 MOL1         0.3769
      29    C9      15.211410   18.207581   22.289670 C.3        1 MOL1         0.1053
      30    H14     16.173614   18.591104   22.656724 H          1 MOL1         0.0783
      31    O8      14.558689   17.464245   23.323633 O.3        1 MOL1        -0.5519
      32    H15     14.209562   18.141520   23.945586 H          1 MOL1         0.3769
      33    C10     15.487242   17.288567   21.074008 C.3        1 MOL1         0.1018
      34    H16     14.569222   16.745423   20.812613 H          1 MOL1         0.0783
      35    C11     15.966945   18.084067   19.831765 C.3        1 MOL1         0.1043
      36    H17     16.983763   18.446740   20.016663 H          1 MOL1         0.0783
      37    O9      15.064316   19.194621   19.595153 O.3        1 MOL1        -0.3740
      38    C12     15.988397   17.223489   18.551702 C.3        1 MOL1         0.0138
      39    H18     14.962462   16.927688   18.294846 H          1 MOL1         0.0794
      40    H19     16.561993   16.307361   18.737106 H          1 MOL1         0.0794
      41    O10     16.584157   17.957941   17.480538 O.3        1 MOL1        -0.5486
      42    H20     16.071824   18.792335   17.405032 H          1 MOL1         0.3769
      43    C13     18.532162   23.964993   21.868337 C.3        1 MOL1         0.2972
      44    H21     18.905833   24.957941   22.149849 H          1 MOL1         0.0751
      45    O11     19.569836   23.151908   21.283021 O.3        1 MOL1        -0.3740
      46    C14     17.944525   23.238639   23.107074 C.3        1 MOL1         0.1003
      47    H22     17.110937   23.850583   23.475818 H          1 MOL1         0.0783
      48    O12     18.917210   23.087770   24.153613 O.3        1 MOL1        -0.5519
      49    H23     19.694961   23.648777   23.916129 H          1 MOL1         0.3769
      50    C15     17.387745   21.853067   22.714506 C.3        1 MOL1         0.1053
      51    H24     18.241853   21.230599   22.427592 H          1 MOL1         0.0783
      52    O13     16.731471   21.273222   23.845840 O.3        1 MOL1        -0.5519
      53    H25     17.347693   21.435277   24.595578 H          1 MOL1         0.3769
      54    C16     16.415472   21.940089   21.510261 C.3        1 MOL1         0.1018
      55    H26     15.456021   22.339139   21.865110 H          1 MOL1         0.0783
      56    C17     16.964099   22.834703   20.361888 C.3        1 MOL1         0.1043
      57    H27     17.782727   22.292942   19.870500 H          1 MOL1         0.0783
      58    O14     17.473222   24.083984   20.895544 O.3        1 MOL1        -0.3740
      59    C18     15.915509   23.159979   19.271293 C.3        1 MOL1         0.0138
      60    H28     15.721058   22.247490   18.691675 H          1 MOL1         0.0794
      61    H29     16.345879   23.898327   18.581498 H          1 MOL1         0.0794
      62    O15     14.690135   23.652637   19.827562 O.3        1 MOL1        -0.5486
      63    H30     14.109719   23.919632   19.081626 H          1 MOL1         0.3769
      64    C19     23.643692   22.927285   20.841121 C.3        1 MOL1         0.2972
      65    H31     24.714742   23.040167   20.628888 H          1 MOL1         0.0751
      66    O16     23.293285   21.549047   21.090889 O.3        1 MOL1        -0.3740
      67    C20     23.208698   23.809363   22.040732 C.3        1 MOL1         0.1003
      68    H32     23.367835   24.854143   21.743363 H          1 MOL1         0.0783
      69    O17     23.983536   23.543644   23.218914 O.3        1 MOL1        -0.5519
      70    H33     23.781812   22.613001   23.491557 H          1 MOL1         0.3769
      71    C21     21.699854   23.623069   22.331158 C.3        1 MOL1         0.1053
      72    H34     21.550856   22.600097   22.704719 H          1 MOL1         0.0783
      73    O18     21.300506   24.567431   23.330291 O.3        1 MOL1        -0.5519
      74    H35     22.038858   24.577838   23.981216 H          1 MOL1         0.3769
      75    C22     20.837418   23.797398   21.049507 C.3        1 MOL1         0.1018
      76    H36     20.712295   24.866238   20.830065 H          1 MOL1         0.0783
      77    C23     21.443167   23.103875   19.798774 C.3        1 MOL1         0.1043
      78    H37     21.276080   22.024270   19.886823 H          1 MOL1         0.0783
      79    O19     22.864099   23.374382   19.712345 O.3        1 MOL1        -0.3740
      80    C24     20.782741   23.593941   18.491485 C.3        1 MOL1         0.0138
      81    H38     21.029628   24.652727   18.335997 H          1 MOL1         0.0794
      82    H39     19.691372   23.518019   18.588730 H          1 MOL1         0.0794
      83    O20     21.228867   22.806156   17.384211 O.3        1 MOL1        -0.5486
      84    H40     22.211400   22.848171   17.404069 H          1 MOL1         0.3769
      85    C25     24.759341   17.831017   22.138149 C.3        1 MOL1         0.2972
      86    H41     25.361194   16.979121   22.478243 H          1 MOL1         0.0751
      87    O21     23.562882   17.400377   21.458108 O.3        1 MOL1        -0.3740
      88    C26     24.355208   18.723644   23.340386 C.3        1 MOL1         0.1003
      89    H42     25.284386   19.069673   23.811632 H          1 MOL1         0.0783
      90    O22     23.580152   17.992920   24.304992 O.3        1 MOL1        -0.5519
      91    H43     23.788026   17.036384   24.177498 H          1 MOL1         0.3769
      92    C27     23.562147   19.963992   22.867416 C.3        1 MOL1         0.1053
      93    H44     22.593629   19.620828   22.485273 H          1 MOL1         0.0783
      94    O23     23.354312   20.832630   23.984535 O.3        1 MOL1        -0.5519
      95    H45     23.054166   20.235287   24.706435 H          1 MOL1         0.3769
      96    C28     24.284490   20.715740   21.720839 C.3        1 MOL1         0.1018
      97    H46     25.111060   21.302478   22.143022 H          1 MOL1         0.0783
      98    C29     24.819067   19.754282   20.622597 C.3        1 MOL1         0.1043
      99    H47     23.961607   19.373987   20.051700 H          1 MOL1         0.0783
     100    O24     25.528230   18.645300   21.227660 O.3        1 MOL1        -0.3740
     101    C30     25.776924   20.439675   19.622782 C.3        1 MOL1         0.0138
     102    H48     25.223829   21.209104   19.067898 H          1 MOL1         0.0794
     103    H49     26.118970   19.693703   18.892941 H          1 MOL1         0.0794
     104    O25     26.895239   21.025592   20.295431 O.3        1 MOL1        -0.5486
     105    H50     27.332008   20.296991   20.790412 H          1 MOL1         0.3769
     106    C31     21.367680   13.880422   21.032385 C.3        1 MOL1         0.2972
     107    H51     21.025336   12.866579   20.787465 H          1 MOL1         0.0751
     108    O26     20.279743   14.733171   21.436025 O.3        1 MOL1        -0.3740
     109    C32     22.391573   13.853580   22.193760 C.3        1 MOL1         0.1003
     110    H52     23.242563   13.242396   21.865975 H          1 MOL1         0.0783
     111    O27     21.818149   13.267577   23.373937 O.3        1 MOL1        -0.5519
     112    H53     20.921816   13.669941   23.501529 H          1 MOL1         0.3769
     113    C33     22.916699   15.279067   22.500318 C.3        1 MOL1         0.1053
     114    H54     22.082803   15.868337   22.906092 H          1 MOL1         0.0783
     115    O28     23.956002   15.177015   23.479800 O.3        1 MOL1        -0.5519
     116    H55     23.638565   14.492508   24.112545 H          1 MOL1         0.3769
     117    C34     23.425066   15.986063   21.209049 C.3        1 MOL1         0.1018
     118    H56     24.379418   15.544698   20.892309 H          1 MOL1         0.0783
     119    C35     22.404874   15.862961   20.046575 C.3        1 MOL1         0.1043
     120    H57     21.528125   16.477351   20.281423 H          1 MOL1         0.0783
     121    O29     22.014529   14.478407   19.889258 O.3        1 MOL1        -0.3740
     122    C36     22.981686   16.349222   18.700769 C.3        1 MOL1         0.0138
     123    H58     23.773704   15.662391   18.373597 H          1 MOL1         0.0794
     124    H59     23.434617   17.339982   18.836601 H          1 MOL1         0.0794
     125    O30     21.941137   16.425507   17.723951 O.3        1 MOL1        -0.5486
     126    H60     21.546800   15.528034   17.671846 H          1 MOL1         0.3769
     127    N1      19.675273   20.602806   16.146332 N.4        1 MOL1        -0.5940
     128    H1      18.683178   20.842643   16.065664 H          1 MOL1         0.3649
     129    H2      20.011463   20.367487   15.207527 H          1 MOL1         0.3649
     130    H3      20.175955   21.457469   16.443900 H          1 MOL1         0.3649
     131    C1      19.906624   19.474615   17.129508 C.3        1 MOL1         0.0207
     132    H4      20.976584   19.248285   17.128993 H          1 MOL1         0.0950
     133    H5      19.365346   18.589279   16.783594 H          1 MOL1         0.0950
     134    C2      19.459319   19.841034   18.553084 C.3        1 MOL1        -0.1415
     135    H6      19.822300   20.843378   18.797484 H          1 MOL1         0.0976
     136    H7      18.363193   19.884009   18.597102 H          1 MOL1         0.0976
     137    C3      19.995894   18.836899   19.592553 C.3        1 MOL1        -0.1375
     138    H8      21.084398   18.734855   19.481130 H          1 MOL1         0.0976
     139    H9      19.558947   17.847233   19.398449 H          1 MOL1         0.0976
     140    C4      19.671001   19.291032   21.030953 C.3        1 MOL1        -0.1375
     141    H10     18.599292   19.498213   21.108407 H          1 MOL1         0.0976
     142    H11     20.196685   20.230061   21.254450 H          1 MOL1         0.0976
     143    C5      20.041976   18.223633   22.075964 C.3        1 MOL1        -0.1350
     144    H12     21.116531   18.015596   22.036470 H          1 MOL1         0.0976
     145    H13     19.531373   17.288327   21.823968 H          1 MOL1         0.0976
     146    C6      19.656628   18.659248   23.504369 C.3        1 MOL1        -0.2365
     147    H14     19.944137   17.890077   24.232946 H          1 MOL1         0.0987
     148    H15     18.573863   18.819195   23.590437 H          1 MOL1         0.0987
     149    H16     20.164038   19.592661   23.782355 H          1 MOL1         0.0987
@<TRIPOS>BOND
    1     1     2    1
    2     1     3    1
    3     1     4    1
    4     4     5    1
    5     4     6    1
    6     6     7    1
    7     4     8    1
    8     8     9    1
    9     8    10    1
   10    10    11    1
   11     8    12    1
   12    12    13    1
   13    12    14    1
   14    14    15    1
   15     1    16    1
   16    14    16    1
   17    14    17    1
   18    17    18    1
   19    17    19    1
   20    17    20    1
   21    20    21    1
   22    22    23    1
   23    22    24    1
   24    22    25    1
   25    25    26    1
   26    25    27    1
   27    27    28    1
   28    25    29    1
   29    29    30    1
   30    29    31    1
   31    31    32    1
   32     3    33    1
   33    29    33    1
   34    33    34    1
   35    33    35    1
   36    35    36    1
   37    22    37    1
   38    35    37    1
   39    35    38    1
   40    38    39    1
   41    38    40    1
   42    38    41    1
   43    41    42    1
   44    43    44    1
   45    43    45    1
   46    43    46    1
   47    46    47    1
   48    46    48    1
   49    48    49    1
   50    46    50    1
   51    50    51    1
   52    50    52    1
   53    52    53    1
   54    24    54    1
   55    50    54    1
   56    54    55    1
   57    54    56    1
   58    56    57    1
   59    43    58    1
   60    56    58    1
   61    56    59    1
   62    59    60    1
   63    59    61    1
   64    59    62    1
   65    62    63    1
   66    64    65    1
   67    64    66    1
   68    64    67    1
   69    67    68    1
   70    67    69    1
   71    69    70    1
   72    67    71    1
   73    71    72    1
   74    71    73    1
   75    73    74    1
   76    45    75    1
   77    71    75    1
   78    75    76    1
   79    75    77    1
   80    77    78    1
   81    64    79    1
   82    77    79    1
   83    77    80    1
   84    80    81    1
   85    80    82    1
   86    80    83    1
   87    83    84    1
   88    85    86    1
   89    85    87    1
   90    85    88    1
   91    88    89    1
   92    88    90    1
   93    90    91    1
   94    88    92    1
   95    92    93    1
   96    92    94    1
   97    94    95    1
   98    66    96    1
   99    92    96    1
  100    96    97    1
  101    96    98    1
  102    98    99    1
  103    85   100    1
  104    98   100    1
  105    98   101    1
  106   101   102    1
  107   101   103    1
  108   101   104    1
  109   104   105    1
  110   106   107    1
  111    12   108    1
  112   106   108    1
  113   106   109    1
  114   109   110    1
  115   109   111    1
  116   111   112    1
  117   109   113    1
  118   113   114    1
  119   113   115    1
  120   115   116    1
  121    87   117    1
  122   113   117    1
  123   117   118    1
  124   117   119    1
  125   119   120    1
  126   106   121    1
  127   119   121    1
  128   119   122    1
  129   122   123    1
  130   122   124    1
  131   122   125    1
  132   125   126    1
  133   127   128    1
  134   127   129    1
  135   127   130    1
  136   127   131    1
  137   131   132    1
  138   131   133    1
  139   131   134    1
  140   134   135    1
  141   134   136    1
  142   134   137    1
  143   137   138    1
  144   137   139    1
  145   137   140    1
  146   140   141    1
  147   140   142    1
  148   140   143    1
  149   143   144    1
  150   143   145    1
  151   143   146    1
  152   146   147    1
  153   146   148    1
  154   146   149    1
@<TRIPOS>SUBSTRUCTURE
       1 MOL1            1 RESIDUE      1      MOL     
       2 MOL1          149 RESIDUE      1      MOL     
@<SCITEGIC>MOL_PROPERTY
VM2 Rank
SciTegic.value.IntegerValue
7

@<SCITEGIC>MOL_PROPERTY
Conf_Id
SciTegic.value.IntegerValue
12708

@<SCITEGIC>MOL_PROPERTY
Probability
SciTegic.value.DoubleValue
0.85

@<SCITEGIC>MOL_PROPERTY
Sum Probability
SciTegic.value.DoubleValue
9.45

@<SCITEGIC>MOL_PROPERTY
Delta G
SciTegic.value.DoubleValue
0.503

@<SCITEGIC>MOL_PROPERTY
G
SciTegic.value.DoubleValue
557.585

@<SCITEGIC>MOL_PROPERTY
E
SciTegic.value.DoubleValue
359.800

@<SCITEGIC>MOL_PROPERTY
-TS
SciTegic.value.DoubleValue
197.784

@<SCITEGIC>MOL_PROPERTY
U+W
SciTegic.value.DoubleValue
228.347

@<SCITEGIC>MOL_PROPERTY
U
SciTegic.value.DoubleValue
299.821

@<SCITEGIC>MOL_PROPERTY
W
SciTegic.value.DoubleValue
-71.474

@<SCITEGIC>MOL_PROPERTY
W(PB)
SciTegic.value.DoubleValue
-77.495

@<SCITEGIC>MOL_PROPERTY
W(SA)
SciTegic.value.DoubleValue
6.021

@<SCITEGIC>MOL_PROPERTY
Valence
SciTegic.value.DoubleValue
145.932

@<SCITEGIC>MOL_PROPERTY
Coulomb
SciTegic.value.DoubleValue
179.218

@<SCITEGIC>MOL_PROPERTY
VdW
SciTegic.value.DoubleValue
-25.329

@<SCITEGIC>MOL_PROPERTY
VdW6
SciTegic.value.DoubleValue
-175.996

@<SCITEGIC>MOL_PROPERTY
VdW12
SciTegic.value.DoubleValue
150.667

@<SCITEGIC>MOL_PROPERTY
Bond
SciTegic.value.DoubleValue
4.381

@<SCITEGIC>MOL_PROPERTY
Angle
SciTegic.value.DoubleValue
9.909

@<SCITEGIC>MOL_PROPERTY
Pdih
SciTegic.value.DoubleValue
131.642

@<SCITEGIC>MOL_PROPERTY
Idih
SciTegic.value.DoubleValue
0.000

@<SCITEGIC>MOL_PROPERTY
Tether
SciTegic.value.DoubleValue
0.000

@<TRIPOS>MOLECULE
CD_guest-2_vm2_rndm.mol2 : vm2 host+ligand conformer 8
         149         154           2
SMALL
USER_CHARGES
 
@<TRIPOS>ATOM
       1    C1      16.483707   15.284278   21.819847 C.3        1 MOL1         0.2972
       2    H1      15.418624   15.206168   22.072023 H          1 MOL1         0.0751
       3    O1      16.807945   16.581640   21.275188 O.3        1 MOL1        -0.3740
       4    C2      17.350551   15.034691   23.079709 C.3        1 MOL1         0.1003
       5    H2      17.117010   14.023686   23.438212 H          1 MOL1         0.0783
       6    O2      17.057978   15.984427   24.117611 O.3        1 MOL1        -0.5519
       7    H3      16.180131   16.384421   23.905138 H          1 MOL1         0.3769
       8    C3      18.854923   15.089649   22.732540 C.3        1 MOL1         0.1053
       9    H4      19.097802   16.125390   22.476971 H          1 MOL1         0.0783
      10    O3      19.610367   14.697377   23.881070 O.3        1 MOL1        -0.5519
      11    H5      19.194039   15.184406   24.627874 H          1 MOL1         0.3769
      12    C4      19.213873   14.204307   21.511328 C.3        1 MOL1         0.1018
      13    H6      19.283225   13.157677   21.836514 H          1 MOL1         0.0783
      14    C5      18.193442   14.338886   20.345514 C.3        1 MOL1         0.1043
      15    H7      18.359085   15.307560   19.856430 H          1 MOL1         0.0783
      16    O4      16.835581   14.279903   20.845752 O.3        1 MOL1        -0.3740
      17    C6      18.350660   13.243035   19.268180 C.3        1 MOL1         0.0138
      18    H8      19.337178   13.344095   18.796505 H          1 MOL1         0.0794
      19    H9      17.596623   13.405026   18.486295 H          1 MOL1         0.0794
      20    O5      18.206700   11.937223   19.834122 O.3        1 MOL1        -0.5486
      21    H10     17.321633   11.918050   20.261858 H          1 MOL1         0.3769
      22    C7      14.881483   20.263786   20.788162 C.3        1 MOL1         0.2972
      23    H11     14.177966   21.059771   20.511308 H          1 MOL1         0.0751
      24    O6      16.133425   20.795516   21.256972 O.3        1 MOL1        -0.3740
      25    C8      14.294955   19.366244   21.907095 C.3        1 MOL1         0.1003
      26    H12     13.363168   18.933123   21.520672 H          1 MOL1         0.0783
      27    O7      14.001144   20.130110   23.088037 O.3        1 MOL1        -0.5519
      28    H13     14.806954   20.663361   23.307563 H          1 MOL1         0.3769
      29    C9      15.257413   18.199521   22.245095 C.3        1 MOL1         0.1053
      30    H14     16.160217   18.623432   22.706925 H          1 MOL1         0.0783
      31    O8      14.603127   17.326468   23.172449 O.3        1 MOL1        -0.5519
      32    H15     14.138433   17.927449   23.798759 H          1 MOL1         0.3769
      33    C10     15.687326   17.433483   20.960533 C.3        1 MOL1         0.1018
      34    H16     14.841268   16.849208   20.574611 H          1 MOL1         0.0783
      35    C11     16.165189   18.405495   19.850106 C.3        1 MOL1         0.1043
      36    H17     17.112588   18.859485   20.164026 H          1 MOL1         0.0783
      37    O9      15.156559   19.424929   19.647379 O.3        1 MOL1        -0.3740
      38    C12     16.391463   17.701054   18.495867 C.3        1 MOL1         0.0138
      39    H18     15.443348   17.269153   18.148668 H          1 MOL1         0.0794
      40    H19     17.104205   16.877334   18.629952 H          1 MOL1         0.0794
      41    O10     16.897720   18.636192   17.538740 O.3        1 MOL1        -0.5486
      42    H20     16.253783   19.379108   17.528588 H          1 MOL1         0.3769
      43    C13     18.313526   24.204618   21.778407 C.3        1 MOL1         0.2972
      44    H21     18.743233   25.204963   21.917912 H          1 MOL1         0.0751
      45    O11     19.325884   23.214277   21.506093 O.3        1 MOL1        -0.3740
      46    C14     17.533967   23.771994   23.043993 C.3        1 MOL1         0.1003
      47    H22     16.691993   24.465127   23.169695 H          1 MOL1         0.0783
      48    O12     18.367237   23.821380   24.212911 O.3        1 MOL1        -0.5519
      49    H23     19.304350   23.886721   23.902624 H          1 MOL1         0.3769
      50    C15     16.963221   22.349628   22.855697 C.3        1 MOL1         0.1053
      51    H24     17.813709   21.661477   22.815180 H          1 MOL1         0.0783
      52    O13     16.128640   22.013396   23.967978 O.3        1 MOL1        -0.5519
      53    H25     16.627333   22.322023   24.757438 H          1 MOL1         0.3769
      54    C16     16.167814   22.206946   21.534363 C.3        1 MOL1         0.1018
      55    H26     15.163028   22.623053   21.687265 H          1 MOL1         0.0783
      56    C17     16.855853   22.889633   20.315701 C.3        1 MOL1         0.1043
      57    H27     17.681985   22.244221   19.989166 H          1 MOL1         0.0783
      58    O14     17.376969   24.193886   20.680982 O.3        1 MOL1        -0.3740
      59    C18     15.915622   23.080071   19.104979 C.3        1 MOL1         0.0138
      60    H28     15.607347   22.094995   18.730967 H          1 MOL1         0.0794
      61    H29     16.473985   23.573967   18.298436 H          1 MOL1         0.0794
      62    O15     14.766829   23.854702   19.460162 O.3        1 MOL1        -0.5486
      63    H30     15.106717   24.710332   19.805073 H          1 MOL1         0.3769
      64    C19     23.398367   22.694823   20.909473 C.3        1 MOL1         0.2972
      65    H31     24.456704   22.815682   20.644988 H          1 MOL1         0.0751
      66    O16     23.082188   21.316012   21.190449 O.3        1 MOL1        -0.3740
      67    C20     23.021965   23.589274   22.124958 C.3        1 MOL1         0.1003
      68    H32     23.227856   24.627366   21.833310 H          1 MOL1         0.0783
      69    O17     23.798691   23.273506   23.290324 O.3        1 MOL1        -0.5519
      70    H33     23.579836   22.339766   23.538967 H          1 MOL1         0.3769
      71    C21     21.512940   23.479199   22.449084 C.3        1 MOL1         0.1053
      72    H34     21.322268   22.462303   22.818997 H          1 MOL1         0.0783
      73    O18     21.170776   24.432394   23.459445 O.3        1 MOL1        -0.5519
      74    H35     21.904148   24.387742   24.113705 H          1 MOL1         0.3769
      75    C22     20.639982   23.704166   21.188183 C.3        1 MOL1         0.1018
      76    H36     20.633090   24.768307   20.916786 H          1 MOL1         0.0783
      77    C23     21.143997   22.876108   19.980593 C.3        1 MOL1         0.1043
      78    H37     20.943486   21.820908   20.189798 H          1 MOL1         0.0783
      79    O19     22.564631   23.100358   19.803510 O.3        1 MOL1        -0.3740
      80    C24     20.440104   23.240608   18.657526 C.3        1 MOL1         0.0138
      81    H38     20.758933   24.241907   18.338425 H          1 MOL1         0.0794
      82    H39     19.355283   23.272533   18.816910 H          1 MOL1         0.0794
      83    O20     20.754088   22.264995   17.659640 O.3        1 MOL1        -0.5486
      84    H40     21.734284   22.245020   17.596147 H          1 MOL1         0.3769
      85    C25     24.796193   17.661372   22.112932 C.3        1 MOL1         0.2972
      86    H41     25.448939   16.839656   22.434480 H          1 MOL1         0.0751
      87    O21     23.641035   17.175182   21.400878 O.3        1 MOL1        -0.3740
      88    C26     24.328053   18.490283   23.338294 C.3        1 MOL1         0.1003
      89    H42     25.229047   18.886904   23.824149 H          1 MOL1         0.0783
      90    O22     23.598152   17.686829   24.279812 O.3        1 MOL1        -0.5519
      91    H43     23.808606   16.742086   24.083930 H          1 MOL1         0.3769
      92    C27     23.454229   19.683221   22.892552 C.3        1 MOL1         0.1053
      93    H44     22.520492   19.273747   22.491087 H          1 MOL1         0.0783
      94    O23     23.175642   20.512036   24.025502 O.3        1 MOL1        -0.5519
      95    H45     22.922434   19.879150   24.734373 H          1 MOL1         0.3769
      96    C28     24.127472   20.514044   21.774244 C.3        1 MOL1         0.1018
      97    H46     24.920006   21.129175   22.220204 H          1 MOL1         0.0783
      98    C29     24.722446   19.622293   20.647846 C.3        1 MOL1         0.1043
      99    H47     23.891625   19.197928   20.068381 H          1 MOL1         0.0783
     100    O24     25.510045   18.552240   21.229112 O.3        1 MOL1        -0.3740
     101    C30     25.629294   20.392164   19.661982 C.3        1 MOL1         0.0138
     102    H48     25.021024   21.121746   19.111312 H          1 MOL1         0.0794
     103    H49     26.032065   19.683515   18.925929 H          1 MOL1         0.0794
     104    O25     26.695365   21.055726   20.347051 O.3        1 MOL1        -0.5486
     105    H50     27.189427   20.357416   20.831566 H          1 MOL1         0.3769
     106    C31     21.507447   13.734920   20.743972 C.3        1 MOL1         0.2972
     107    H51     21.094384   12.753961   20.475477 H          1 MOL1         0.0751
     108    O26     20.466575   14.700687   21.003796 O.3        1 MOL1        -0.3740
     109    C32     22.448750   13.637932   21.971963 C.3        1 MOL1         0.1003
     110    H52     23.304697   13.019238   21.672088 H          1 MOL1         0.0783
     111    O27     21.808623   13.020236   23.097636 O.3        1 MOL1        -0.5519
     112    H53     21.052830   13.604403   23.359210 H          1 MOL1         0.3769
     113    C33     22.985414   15.040582   22.347034 C.3        1 MOL1         0.1053
     114    H54     22.138577   15.643446   22.704313 H          1 MOL1         0.0783
     115    O28     23.955045   14.903094   23.391682 O.3        1 MOL1        -0.5519
     116    H55     23.587273   14.214323   23.991176 H          1 MOL1         0.3769
     117    C34     23.608198   15.762774   21.117613 C.3        1 MOL1         0.1018
     118    H56     24.615135   15.367410   20.927998 H          1 MOL1         0.0783
     119    C35     22.765652   15.614340   19.820490 C.3        1 MOL1         0.1043
     120    H57     21.902897   16.286695   19.884731 H          1 MOL1         0.0783
     121    O29     22.314388   14.246091   19.663505 O.3        1 MOL1        -0.3740
     122    C36     23.570987   15.994861   18.561286 C.3        1 MOL1         0.0138
     123    H58     24.396625   15.282898   18.428826 H          1 MOL1         0.0794
     124    H59     24.008559   16.992616   18.700203 H          1 MOL1         0.0794
     125    O30     22.716177   15.992904   17.416072 O.3        1 MOL1        -0.5486
     126    H60     22.282850   15.110804   17.400779 H          1 MOL1         0.3769
     127    N1      19.801704   18.577123   17.048216 N.4        1 MOL1        -0.5940
     128    H1      20.263403   19.467388   16.832445 H          1 MOL1         0.3649
     129    H2      18.781286   18.740471   17.017190 H          1 MOL1         0.3649
     130    H3      20.024309   17.917115   16.296611 H          1 MOL1         0.3649
     131    C1      20.205408   18.043112   18.404058 C.3        1 MOL1         0.0207
     132    H4      21.245612   17.711359   18.350220 H          1 MOL1         0.0950
     133    H5      19.574056   17.176715   18.618021 H          1 MOL1         0.0950
     134    C2      20.050952   19.093175   19.514639 C.3        1 MOL1        -0.1415
     135    H6      20.882248   19.804296   19.443067 H          1 MOL1         0.0976
     136    H7      19.125063   19.661805   19.355507 H          1 MOL1         0.0976
     137    C3      20.023698   18.447617   20.915153 C.3        1 MOL1        -0.1375
     138    H8      20.983202   17.954270   21.117036 H          1 MOL1         0.0976
     139    H9      19.252525   17.668231   20.932137 H          1 MOL1         0.0976
     140    C4      19.727770   19.483030   22.021889 C.3        1 MOL1        -0.1375
     141    H10     18.753541   19.948269   21.828856 H          1 MOL1         0.0976
     142    H11     20.476015   20.285612   21.984152 H          1 MOL1         0.0976
     143    C5      19.724536   18.843339   23.428797 C.3        1 MOL1        -0.1350
     144    H12     20.656892   18.282899   23.587003 H          1 MOL1         0.0976
     145    H13     18.902467   18.119162   23.506071 H          1 MOL1         0.0976
     146    C6      19.572419   19.896919   24.545739 C.3        1 MOL1        -0.2365
     147    H14     19.660537   19.425425   25.532826 H          1 MOL1         0.0987
     148    H15     18.591849   20.384810   24.498803 H          1 MOL1         0.0987
     149    H16     20.346574   20.671616   24.471784 H          1 MOL1         0.0987
@<TRIPOS>BOND
    1     1     2    1
    2     1     3    1
    3     1     4    1
    4     4     5    1
    5     4     6    1
    6     6     7    1
    7     4     8    1
    8     8     9    1
    9     8    10    1
   10    10    11    1
   11     8    12    1
   12    12    13    1
   13    12    14    1
   14    14    15    1
   15     1    16    1
   16    14    16    1
   17    14    17    1
   18    17    18    1
   19    17    19    1
   20    17    20    1
   21    20    21    1
   22    22    23    1
   23    22    24    1
   24    22    25    1
   25    25    26    1
   26    25    27    1
   27    27    28    1
   28    25    29    1
   29    29    30    1
   30    29    31    1
   31    31    32    1
   32     3    33    1
   33    29    33    1
   34    33    34    1
   35    33    35    1
   36    35    36    1
   37    22    37    1
   38    35    37    1
   39    35    38    1
   40    38    39    1
   41    38    40    1
   42    38    41    1
   43    41    42    1
   44    43    44    1
   45    43    45    1
   46    43    46    1
   47    46    47    1
   48    46    48    1
   49    48    49    1
   50    46    50    1
   51    50    51    1
   52    50    52    1
   53    52    53    1
   54    24    54    1
   55    50    54    1
   56    54    55    1
   57    54    56    1
   58    56    57    1
   59    43    58    1
   60    56    58    1
   61    56    59    1
   62    59    60    1
   63    59    61    1
   64    59    62    1
   65    62    63    1
   66    64    65    1
   67    64    66    1
   68    64    67    1
   69    67    68    1
   70    67    69    1
   71    69    70    1
   72    67    71    1
   73    71    72    1
   74    71    73    1
   75    73    74    1
   76    45    75    1
   77    71    75    1
   78    75    76    1
   79    75    77    1
   80    77    78    1
   81    64    79    1
   82    77    79    1
   83    77    80    1
   84    80    81    1
   85    80    82    1
   86    80    83    1
   87    83    84    1
   88    85    86    1
   89    85    87    1
   90    85    88    1
   91    88    89    1
   92    88    90    1
   93    90    91    1
   94    88    92    1
   95    92    93    1
   96    92    94    1
   97    94    95    1
   98    66    96    1
   99    92    96    1
  100    96    97    1
  101    96    98    1
  102    98    99    1
  103    85   100    1
  104    98   100    1
  105    98   101    1
  106   101   102    1
  107   101   103    1
  108   101   104    1
  109   104   105    1
  110   106   107    1
  111    12   108    1
  112   106   108    1
  113   106   109    1
  114   109   110    1
  115   109   111    1
  116   111   112    1
  117   109   113    1
  118   113   114    1
  119   113   115    1
  120   115   116    1
  121    87   117    1
  122   113   117    1
  123   117   118    1
  124   117   119    1
  125   119   120    1
  126   106   121    1
  127   119   121    1
  128   119   122    1
  129   122   123    1
  130   122   124    1
  131   122   125    1
  132   125   126    1
  133   127   128    1
  134   127   129    1
  135   127   130    1
  136   127   131    1
  137   131   132    1
  138   131   133    1
  139   131   134    1
  140   134   135    1
  141   134   136    1
  142   134   137    1
  143   137   138    1
  144   137   139    1
  145   137   140    1
  146   140   141    1
  147   140   142    1
  148   140   143    1
  149   143   144    1
  150   143   145    1
  151   143   146    1
  152   146   147    1
  153   146   148    1
  154   146   149    1
@<TRIPOS>SUBSTRUCTURE
       1 MOL1            1 RESIDUE      1      MOL     
       2 MOL1          149 RESIDUE      1      MOL     
@<SCITEGIC>MOL_PROPERTY
VM2 Rank
SciTegic.value.IntegerValue
8

@<SCITEGIC>MOL_PROPERTY
Conf_Id
SciTegic.value.IntegerValue
13125

@<SCITEGIC>MOL_PROPERTY
Probability
SciTegic.value.DoubleValue
0.85

@<SCITEGIC>MOL_PROPERTY
Sum Probability
SciTegic.value.DoubleValue
10.30

@<SCITEGIC>MOL_PROPERTY
Delta G
SciTegic.value.DoubleValue
0.506

@<SCITEGIC>MOL_PROPERTY
G
SciTegic.value.DoubleValue
557.588

@<SCITEGIC>MOL_PROPERTY
E
SciTegic.value.DoubleValue
358.967

@<SCITEGIC>MOL_PROPERTY
-TS
SciTegic.value.DoubleValue
198.620

@<SCITEGIC>MOL_PROPERTY
U+W
SciTegic.value.DoubleValue
227.514

@<SCITEGIC>MOL_PROPERTY
U
SciTegic.value.DoubleValue
294.672

@<SCITEGIC>MOL_PROPERTY
W
SciTegic.value.DoubleValue
-67.159

@<SCITEGIC>MOL_PROPERTY
W(PB)
SciTegic.value.DoubleValue
-73.137

@<SCITEGIC>MOL_PROPERTY
W(SA)
SciTegic.value.DoubleValue
5.978

@<SCITEGIC>MOL_PROPERTY
Valence
SciTegic.value.DoubleValue
146.690

@<SCITEGIC>MOL_PROPERTY
Coulomb
SciTegic.value.DoubleValue
174.399

@<SCITEGIC>MOL_PROPERTY
VdW
SciTegic.value.DoubleValue
-26.416

@<SCITEGIC>MOL_PROPERTY
VdW6
SciTegic.value.DoubleValue
-178.124

@<SCITEGIC>MOL_PROPERTY
VdW12
SciTegic.value.DoubleValue
151.708

@<SCITEGIC>MOL_PROPERTY
Bond
SciTegic.value.DoubleValue
4.299

@<SCITEGIC>MOL_PROPERTY
Angle
SciTegic.value.DoubleValue
10.027

@<SCITEGIC>MOL_PROPERTY
Pdih
SciTegic.value.DoubleValue
132.363

@<SCITEGIC>MOL_PROPERTY
Idih
SciTegic.value.DoubleValue
0.000

@<SCITEGIC>MOL_PROPERTY
Tether
SciTegic.value.DoubleValue
0.000

