@<TRIPOS>MOLECULE
CD_guest-1_vm2_rndm.mol2 : vm2 host+ligand conformer 1
         143         148           2
SMALL
USER_CHARGES
 
@<TRIPOS>ATOM
       1    C1      16.390901   15.312431   20.688655 C.3        1 MOL1         0.2972
       2    H1      15.346088   15.181914   20.379484 H          1 MOL1         0.0751
       3    O1      16.664650   16.681881   21.049500 O.3        1 MOL1        -0.3740
       4    C2      16.736282   14.371542   21.875637 C.3        1 MOL1         0.1003
       5    H2      16.554830   13.343679   21.535270 H          1 MOL1         0.0783
       6    O2      15.920019   14.634210   23.024660 O.3        1 MOL1        -0.5519
       7    H3      16.271524   14.037008   23.723174 H          1 MOL1         0.3769
       8    C3      18.228994   14.482837   22.265728 C.3        1 MOL1         0.1053
       9    H4      18.388920   15.475810   22.703214 H          1 MOL1         0.0783
      10    O3      18.543732   13.473478   23.231828 O.3        1 MOL1        -0.5519
      11    H5      19.444885   13.687705   23.580468 H          1 MOL1         0.3769
      12    C4      19.155198   14.344959   21.029774 C.3        1 MOL1         0.1018
      13    H6      19.188420   13.295058   20.708875 H          1 MOL1         0.0783
      14    C5      18.683333   15.210804   19.834068 C.3        1 MOL1         0.1043
      15    H7      18.864652   16.268399   20.065627 H          1 MOL1         0.0783
      16    O4      17.273206   14.971807   19.598621 O.3        1 MOL1        -0.3740
      17    C6      19.436810   14.860239   18.534401 C.3        1 MOL1         0.0138
      18    H8      19.194051   13.830173   18.240763 H          1 MOL1         0.0794
      19    H9      20.518317   14.908889   18.715289 H          1 MOL1         0.0794
      20    O5      19.075166   15.776218   17.499654 O.3        1 MOL1        -0.5486
      21    H10     18.092534   15.776767   17.466642 H          1 MOL1         0.3769
      22    C7      14.850898   20.303873   21.813006 C.3        1 MOL1         0.2972
      23    H11     14.187428   21.139339   22.070864 H          1 MOL1         0.0751
      24    O6      16.058584   20.761389   21.168847 O.3        1 MOL1        -0.3740
      25    C8      15.225424   19.496154   23.084129 C.3        1 MOL1         0.1003
      26    H12     14.293611   19.098340   23.505995 H          1 MOL1         0.0783
      27    O7      15.863048   20.336154   24.061271 O.3        1 MOL1        -0.5519
      28    H13     15.676089   21.272194   23.810971 H          1 MOL1         0.3769
      29    C9      16.135555   18.299592   22.712387 C.3        1 MOL1         0.1053
      30    H14     17.088125   18.714681   22.364142 H          1 MOL1         0.0783
      31    O8      16.356191   17.455489   23.852119 O.3        1 MOL1        -0.5519
      32    H15     16.307313   16.524077   23.526785 H          1 MOL1         0.3769
      33    C10     15.554759   17.452788   21.553773 C.3        1 MOL1         0.1018
      34    H16     14.755717   16.812398   21.951017 H          1 MOL1         0.0783
      35    C11     15.009010   18.322289   20.384009 C.3        1 MOL1         0.1043
      36    H17     15.864831   18.741776   19.838454 H          1 MOL1         0.0783
      37    O9      14.188498   19.398695   20.904548 O.3        1 MOL1        -0.3740
      38    C12     14.155851   17.533757   19.365329 C.3        1 MOL1         0.0138
      39    H18     14.795218   16.805705   18.849213 H          1 MOL1         0.0794
      40    H19     13.780716   18.231622   18.604748 H          1 MOL1         0.0794
      41    O10     13.065242   16.866488   20.006601 O.3        1 MOL1        -0.5486
      42    H20     12.540813   17.564722   20.458233 H          1 MOL1         0.3769
      43    C13     18.357947   24.113827   20.634231 C.3        1 MOL1         0.2972
      44    H21     18.816771   25.080876   20.390907 H          1 MOL1         0.0751
      45    O11     19.357028   23.115896   20.936765 O.3        1 MOL1        -0.3740
      46    C14     17.357866   24.247151   21.812457 C.3        1 MOL1         0.1003
      47    H22     16.554514   24.914551   21.474029 H          1 MOL1         0.0783
      48    O12     17.965133   24.815757   22.981726 O.3        1 MOL1        -0.5519
      49    H23     18.633430   24.159376   23.303429 H          1 MOL1         0.3769
      50    C15     16.725009   22.876031   22.147688 C.3        1 MOL1         0.1053
      51    H24     17.512024   22.234203   22.567257 H          1 MOL1         0.0783
      52    O13     15.690216   23.075147   23.117145 O.3        1 MOL1        -0.5519
      53    H25     16.054698   23.738561   23.746377 H          1 MOL1         0.3769
      54    C16     16.153460   22.171334   20.885067 C.3        1 MOL1         0.1018
      55    H26     15.172289   22.597974   20.637263 H          1 MOL1         0.0783
      56    C17     17.073467   22.286296   19.637755 C.3        1 MOL1         0.1043
      57    H27     17.901432   21.573812   19.740401 H          1 MOL1         0.0783
      58    O14     17.589582   23.635158   19.511473 O.3        1 MOL1        -0.3740
      59    C18     16.315596   21.949600   18.337140 C.3        1 MOL1         0.0138
      60    H28     15.528839   22.697808   18.171524 H          1 MOL1         0.0794
      61    H29     15.829126   20.970774   18.445296 H          1 MOL1         0.0794
      62    O15     17.224173   21.923719   17.234824 O.3        1 MOL1        -0.5486
      63    H30     17.721114   22.771689   17.271483 H          1 MOL1         0.3769
      64    C19     23.273563   22.572017   22.177192 C.3        1 MOL1         0.2972
      65    H31     24.290981   22.690846   22.570556 H          1 MOL1         0.0751
      66    O16     23.108232   21.306717   21.505147 O.3        1 MOL1        -0.3740
      67    C20     22.236761   22.669804   23.326735 C.3        1 MOL1         0.1003
      68    H32     22.367359   23.652984   23.797408 H          1 MOL1         0.0783
      69    O17     22.434729   21.641671   24.311398 O.3        1 MOL1        -0.5519
      70    H33     23.376882   21.354478   24.243147 H          1 MOL1         0.3769
      71    C21     20.795571   22.581247   22.779314 C.3        1 MOL1         0.1053
      72    H34     20.651183   21.564461   22.397707 H          1 MOL1         0.0783
      73    O18     19.880511   22.833501   23.849930 O.3        1 MOL1        -0.5519
      74    H35     20.264310   22.356094   24.619441 H          1 MOL1         0.3769
      75    C22     20.551211   23.564723   21.608268 C.3        1 MOL1         0.1018
      76    H36     20.442170   24.579753   22.012385 H          1 MOL1         0.0783
      77    C23     21.700683   23.533003   20.562857 C.3        1 MOL1         0.1043
      78    H37     21.638708   22.585912   20.010449 H          1 MOL1         0.0783
      79    O19     22.983540   23.623202   21.231027 O.3        1 MOL1        -0.3740
      80    C24     21.622838   24.680857   19.531639 C.3        1 MOL1         0.0138
      81    H38     20.709648   24.562542   18.933417 H          1 MOL1         0.0794
      82    H39     22.475741   24.597371   18.844811 H          1 MOL1         0.0794
      83    O20     21.627330   25.957947   20.176183 O.3        1 MOL1        -0.5486
      84    H40     22.451527   25.994062   20.710979 H          1 MOL1         0.3769
      85    C25     25.113453   17.683918   21.194293 C.3        1 MOL1         0.2972
      86    H41     25.824845   16.871355   20.998219 H          1 MOL1         0.0751
      87    O21     23.794178   17.182298   21.486593 O.3        1 MOL1        -0.3740
      88    C26     25.577682   18.558346   22.388120 C.3        1 MOL1         0.1003
      89    H42     26.545432   19.000035   22.115666 H          1 MOL1         0.0783
      90    O22     25.730144   17.780815   23.587928 O.3        1 MOL1        -0.5519
      91    H43     26.526496   17.218673   23.476340 H          1 MOL1         0.3769
      92    C27     24.577977   19.715297   22.632631 C.3        1 MOL1         0.1053
      93    H44     23.630864   19.276531   22.974551 H          1 MOL1         0.0783
      94    O23     25.108935   20.566473   23.654192 O.3        1 MOL1        -0.5519
      95    H45     25.471336   19.947471   24.328680 H          1 MOL1         0.3769
      96    C28     24.299871   20.514029   21.326085 C.3        1 MOL1         0.1018
      97    H46     25.165382   21.147130   21.089060 H          1 MOL1         0.0783
      98    C29     24.015760   19.586772   20.113599 C.3        1 MOL1         0.1043
      99    H47     23.018937   19.142201   20.228351 H          1 MOL1         0.0783
     100    O24     25.023248   18.548371   20.043249 O.3        1 MOL1        -0.3740
     101    C30     24.047149   20.358637   18.778406 C.3        1 MOL1         0.0138
     102    H48     25.058250   20.753248   18.610616 H          1 MOL1         0.0794
     103    H49     23.360375   21.213441   18.837575 H          1 MOL1         0.0794
     104    O25     23.660034   19.496087   17.707255 O.3        1 MOL1        -0.5486
     105    H50     24.241383   18.706077   17.770444 H          1 MOL1         0.3769
     106    C31     21.449670   13.826620   21.705208 C.3        1 MOL1         0.2972
     107    H51     21.007632   12.824574   21.775023 H          1 MOL1         0.0751
     108    O26     20.455321   14.831940   21.413687 O.3        1 MOL1        -0.3740
     109    C32     22.160053   14.184640   23.032912 C.3        1 MOL1         0.1003
     110    H52     22.968154   13.456299   23.180579 H          1 MOL1         0.0783
     111    O27     21.256563   14.118702   24.144373 O.3        1 MOL1        -0.5519
     112    H53     21.756842   14.514155   24.893450 H          1 MOL1         0.3769
     113    C33     22.794363   15.589995   22.952508 C.3        1 MOL1         0.1053
     114    H54     21.980247   16.320085   22.900528 H          1 MOL1         0.0783
     115    O28     23.580874   15.826366   24.125931 O.3        1 MOL1        -0.5519
     116    H55     24.112075   16.642722   23.958574 H          1 MOL1         0.3769
     117    C34     23.670871   15.761442   21.686576 C.3        1 MOL1         0.1018
     118    H56     24.642188   15.282398   21.867979 H          1 MOL1         0.0783
     119    C35     23.018918   15.178291   20.399253 C.3        1 MOL1         0.1043
     120    H57     22.226940   15.866008   20.074563 H          1 MOL1         0.0783
     121    O29     22.446190   13.871805   20.662273 O.3        1 MOL1        -0.3740
     122    C36     24.013198   15.030975   19.226279 C.3        1 MOL1         0.0138
     123    H58     24.375979   16.026021   18.936832 H          1 MOL1         0.0794
     124    H59     23.480504   14.613504   18.361332 H          1 MOL1         0.0794
     125    O30     25.113754   14.190505   19.585144 O.3        1 MOL1        -0.5486
     126    H60     24.725557   13.328617   19.855565 H          1 MOL1         0.3769
     127    N1      18.414584   19.203776   25.039379 N.4        1 MOL1        -0.5891
     128    H1      17.587319   18.663338   24.726257 H          1 MOL1         0.3726
     129    H2      18.027359   20.047119   25.475420 H          1 MOL1         0.3726
     130    H3      18.890848   18.658144   25.761672 H          1 MOL1         0.3726
     131    C1      19.309409   19.546400   23.867338 C.3        1 MOL1         0.0314
     132    H4      20.146535   20.147798   24.233278 H          1 MOL1         0.0999
     133    H5      18.719240   20.160302   23.181767 H          1 MOL1         0.0999
     134    C2      19.842680   18.304216   23.129393 C.3        1 MOL1        -0.1308
     135    H6      20.531272   17.769423   23.795475 H          1 MOL1         0.1025
     136    H7      19.018837   17.614296   22.915637 H          1 MOL1         0.1025
     137    C3      20.560912   18.654443   21.806688 C.3        1 MOL1        -0.1243
     138    H8      20.987552   17.739508   21.374091 H          1 MOL1         0.1025
     139    H9      21.405959   19.322000   22.016952 H          1 MOL1         0.1025
     140    C4      19.624220   19.305015   20.762606 C.3        1 MOL1        -0.2258
     141    H10     18.781533   18.644918   20.519650 H          1 MOL1         0.1036
     142    H11     20.168578   19.509651   19.831433 H          1 MOL1         0.1036
     143    H12     19.215103   20.256404   21.121990 H          1 MOL1         0.1036
@<TRIPOS>BOND
    1     1     2    1
    2     1     3    1
    3     1     4    1
    4     4     5    1
    5     4     6    1
    6     6     7    1
    7     4     8    1
    8     8     9    1
    9     8    10    1
   10    10    11    1
   11     8    12    1
   12    12    13    1
   13    12    14    1
   14    14    15    1
   15     1    16    1
   16    14    16    1
   17    14    17    1
   18    17    18    1
   19    17    19    1
   20    17    20    1
   21    20    21    1
   22    22    23    1
   23    22    24    1
   24    22    25    1
   25    25    26    1
   26    25    27    1
   27    27    28    1
   28    25    29    1
   29    29    30    1
   30    29    31    1
   31    31    32    1
   32     3    33    1
   33    29    33    1
   34    33    34    1
   35    33    35    1
   36    35    36    1
   37    22    37    1
   38    35    37    1
   39    35    38    1
   40    38    39    1
   41    38    40    1
   42    38    41    1
   43    41    42    1
   44    43    44    1
   45    43    45    1
   46    43    46    1
   47    46    47    1
   48    46    48    1
   49    48    49    1
   50    46    50    1
   51    50    51    1
   52    50    52    1
   53    52    53    1
   54    24    54    1
   55    50    54    1
   56    54    55    1
   57    54    56    1
   58    56    57    1
   59    43    58    1
   60    56    58    1
   61    56    59    1
   62    59    60    1
   63    59    61    1
   64    59    62    1
   65    62    63    1
   66    64    65    1
   67    64    66    1
   68    64    67    1
   69    67    68    1
   70    67    69    1
   71    69    70    1
   72    67    71    1
   73    71    72    1
   74    71    73    1
   75    73    74    1
   76    45    75    1
   77    71    75    1
   78    75    76    1
   79    75    77    1
   80    77    78    1
   81    64    79    1
   82    77    79    1
   83    77    80    1
   84    80    81    1
   85    80    82    1
   86    80    83    1
   87    83    84    1
   88    85    86    1
   89    85    87    1
   90    85    88    1
   91    88    89    1
   92    88    90    1
   93    90    91    1
   94    88    92    1
   95    92    93    1
   96    92    94    1
   97    94    95    1
   98    66    96    1
   99    92    96    1
  100    96    97    1
  101    96    98    1
  102    98    99    1
  103    85   100    1
  104    98   100    1
  105    98   101    1
  106   101   102    1
  107   101   103    1
  108   101   104    1
  109   104   105    1
  110   106   107    1
  111    12   108    1
  112   106   108    1
  113   106   109    1
  114   109   110    1
  115   109   111    1
  116   111   112    1
  117   109   113    1
  118   113   114    1
  119   113   115    1
  120   115   116    1
  121    87   117    1
  122   113   117    1
  123   117   118    1
  124   117   119    1
  125   119   120    1
  126   106   121    1
  127   119   121    1
  128   119   122    1
  129   122   123    1
  130   122   124    1
  131   122   125    1
  132   125   126    1
  133   127   128    1
  134   127   129    1
  135   127   130    1
  136   127   131    1
  137   131   132    1
  138   131   133    1
  139   131   134    1
  140   134   135    1
  141   134   136    1
  142   134   137    1
  143   137   138    1
  144   137   139    1
  145   137   140    1
  146   140   141    1
  147   140   142    1
  148   140   143    1
@<TRIPOS>SUBSTRUCTURE
       1 MOL1            1 RESIDUE      1      MOL     
       2 MOL1          143 RESIDUE      1      MOL     
@<SCITEGIC>MOL_PROPERTY
VM2 Rank
SciTegic.value.IntegerValue
1

@<SCITEGIC>MOL_PROPERTY
Conf_Id
SciTegic.value.IntegerValue
21251

@<SCITEGIC>MOL_PROPERTY
Probability
SciTegic.value.DoubleValue
1.49

@<SCITEGIC>MOL_PROPERTY
Sum Probability
SciTegic.value.DoubleValue
1.49

@<SCITEGIC>MOL_PROPERTY
Delta G
SciTegic.value.DoubleValue
0.000

@<SCITEGIC>MOL_PROPERTY
G
SciTegic.value.DoubleValue
539.931

@<SCITEGIC>MOL_PROPERTY
E
SciTegic.value.DoubleValue
351.904

@<SCITEGIC>MOL_PROPERTY
-TS
SciTegic.value.DoubleValue
188.028

@<SCITEGIC>MOL_PROPERTY
U+W
SciTegic.value.DoubleValue
225.816

@<SCITEGIC>MOL_PROPERTY
U
SciTegic.value.DoubleValue
301.898

@<SCITEGIC>MOL_PROPERTY
W
SciTegic.value.DoubleValue
-76.082

@<SCITEGIC>MOL_PROPERTY
W(PB)
SciTegic.value.DoubleValue
-82.157

@<SCITEGIC>MOL_PROPERTY
W(SA)
SciTegic.value.DoubleValue
6.075

@<SCITEGIC>MOL_PROPERTY
Valence
SciTegic.value.DoubleValue
144.338

@<SCITEGIC>MOL_PROPERTY
Coulomb
SciTegic.value.DoubleValue
178.963

@<SCITEGIC>MOL_PROPERTY
VdW
SciTegic.value.DoubleValue
-21.403

@<SCITEGIC>MOL_PROPERTY
VdW6
SciTegic.value.DoubleValue
-169.540

@<SCITEGIC>MOL_PROPERTY
VdW12
SciTegic.value.DoubleValue
148.137

@<SCITEGIC>MOL_PROPERTY
Bond
SciTegic.value.DoubleValue
4.355

@<SCITEGIC>MOL_PROPERTY
Angle
SciTegic.value.DoubleValue
10.093

@<SCITEGIC>MOL_PROPERTY
Pdih
SciTegic.value.DoubleValue
129.890

@<SCITEGIC>MOL_PROPERTY
Idih
SciTegic.value.DoubleValue
0.000

@<SCITEGIC>MOL_PROPERTY
Tether
SciTegic.value.DoubleValue
0.000

@<TRIPOS>MOLECULE
CD_guest-1_vm2_rndm.mol2 : vm2 host+ligand conformer 2
         143         148           2
SMALL
USER_CHARGES
 
@<TRIPOS>ATOM
       1    C1      16.415459   15.341756   20.611549 C.3        1 MOL1         0.2972
       2    H1      15.370631   15.221408   20.298280 H          1 MOL1         0.0751
       3    O1      16.699981   16.708892   20.974104 O.3        1 MOL1        -0.3740
       4    C2      16.745938   14.396813   21.799319 C.3        1 MOL1         0.1003
       5    H2      16.563371   13.370330   21.455344 H          1 MOL1         0.0783
       6    O2      15.920277   14.660904   22.941281 O.3        1 MOL1        -0.5519
       7    H3      16.265727   14.063274   23.642561 H          1 MOL1         0.3769
       8    C3      18.235177   14.500994   22.203307 C.3        1 MOL1         0.1053
       9    H4      18.397545   15.495900   22.635532 H          1 MOL1         0.0783
      10    O3      18.531870   13.496240   23.179975 O.3        1 MOL1        -0.5519
      11    H5      19.432123   13.704364   23.534396 H          1 MOL1         0.3769
      12    C4      19.172653   14.348581   20.977664 C.3        1 MOL1         0.1018
      13    H6      19.209059   13.294077   20.673111 H          1 MOL1         0.0783
      14    C5      18.710892   15.201229   19.766085 C.3        1 MOL1         0.1043
      15    H7      18.900630   16.258814   19.990503 H          1 MOL1         0.0783
      16    O4      17.296753   14.992757   19.523899 O.3        1 MOL1        -0.3740
      17    C6      19.464606   14.849668   18.463953 C.3        1 MOL1         0.0138
      18    H8      20.539940   15.009871   18.615773 H          1 MOL1         0.0794
      19    H9      19.137674   15.535291   17.670875 H          1 MOL1         0.0794
      20    O5      19.219799   13.493993   18.078319 O.3        1 MOL1        -0.5486
      21    H10     18.242362   13.395244   18.037594 H          1 MOL1         0.3769
      22    C7      14.893064   20.336713   21.743421 C.3        1 MOL1         0.2972
      23    H11     14.227591   21.170652   22.001098 H          1 MOL1         0.0751
      24    O6      16.105551   20.798967   21.110784 O.3        1 MOL1        -0.3740
      25    C8      15.257471   19.522094   23.013213 C.3        1 MOL1         0.1003
      26    H12     14.321609   19.124837   23.426560 H          1 MOL1         0.0783
      27    O7      15.889662   20.355804   23.999136 O.3        1 MOL1        -0.5519
      28    H13     15.700753   21.293330   23.755908 H          1 MOL1         0.3769
      29    C9      16.166801   18.324150   22.643095 C.3        1 MOL1         0.1053
      30    H14     17.124007   18.737303   22.305747 H          1 MOL1         0.0783
      31    O8      16.373528   17.473647   23.780728 O.3        1 MOL1        -0.5519
      32    H15     16.317964   16.543888   23.451851 H          1 MOL1         0.3769
      33    C10     15.591918   17.485178   21.475570 C.3        1 MOL1         0.1018
      34    H16     14.786124   16.847933   21.864178 H          1 MOL1         0.0783
      35    C11     15.057834   18.362320   20.306405 C.3        1 MOL1         0.1043
      36    H17     15.918493   18.784007   19.770617 H          1 MOL1         0.0783
      37    O9      14.235331   19.436194   20.827163 O.3        1 MOL1        -0.3740
      38    C12     14.211042   17.581883   19.276168 C.3        1 MOL1         0.0138
      39    H18     14.853015   16.855959   18.760202 H          1 MOL1         0.0794
      40    H19     13.842894   18.285526   18.517443 H          1 MOL1         0.0794
      41    O10     13.114361   16.912449   19.904758 O.3        1 MOL1        -0.5486
      42    H20     12.587274   17.609021   20.355890 H          1 MOL1         0.3769
      43    C13     18.412324   24.151172   20.625453 C.3        1 MOL1         0.2972
      44    H21     18.879015   25.118241   20.397636 H          1 MOL1         0.0751
      45    O11     19.402848   23.146400   20.932939 O.3        1 MOL1        -0.3740
      46    C14     17.396546   24.279171   21.790890 C.3        1 MOL1         0.1003
      47    H22     16.598306   24.949454   21.446082 H          1 MOL1         0.0783
      48    O12     17.990372   24.839897   22.970979 O.3        1 MOL1        -0.5519
      49    H23     18.653685   24.180608   23.297062 H          1 MOL1         0.3769
      50    C15     16.758006   22.907201   22.110749 C.3        1 MOL1         0.1053
      51    H24     17.540853   22.260825   22.531039 H          1 MOL1         0.0783
      52    O13     15.717682   23.100748   23.075655 O.3        1 MOL1        -0.5519
      53    H25     16.078038   23.762012   23.709479 H          1 MOL1         0.3769
      54    C16     16.194726   22.212629   20.838888 C.3        1 MOL1         0.1018
      55    H26     15.211407   22.635986   20.594576 H          1 MOL1         0.0783
      56    C17     17.121180   22.345295   19.596014 C.3        1 MOL1         0.1043
      57    H27     17.945720   21.629182   19.700444 H          1 MOL1         0.0783
      58    O14     17.660237   23.686873   19.486447 O.3        1 MOL1        -0.3740
      59    C18     16.392282   22.020414   18.273451 C.3        1 MOL1         0.0138
      60    H28     15.991240   20.999357   18.327102 H          1 MOL1         0.0794
      61    H29     17.121563   22.046294   17.452795 H          1 MOL1         0.0794
      62    O15     15.335683   22.952814   18.026324 O.3        1 MOL1        -0.5486
      63    H30     15.745096   23.845858   18.069764 H          1 MOL1         0.3769
      64    C19     23.302679   22.580391   22.210849 C.3        1 MOL1         0.2972
      65    H31     24.316940   22.690737   22.614637 H          1 MOL1         0.0751
      66    O16     23.136399   21.320966   21.528121 O.3        1 MOL1        -0.3740
      67    C20     22.255260   22.675460   23.350934 C.3        1 MOL1         0.1003
      68    H32     22.386101   23.654711   23.829661 H          1 MOL1         0.0783
      69    O17     22.439026   21.639467   24.330103 O.3        1 MOL1        -0.5519
      70    H33     23.381003   21.349922   24.270241 H          1 MOL1         0.3769
      71    C21     20.818878   22.597662   22.789063 C.3        1 MOL1         0.1053
      72    H34     20.672355   21.583667   22.401213 H          1 MOL1         0.0783
      73    O18     19.894469   22.849845   23.851610 O.3        1 MOL1        -0.5519
      74    H35     20.267183   22.366082   24.622552 H          1 MOL1         0.3769
      75    C22     20.590679   23.588096   21.620637 C.3        1 MOL1         0.1018
      76    H36     20.479593   24.600928   22.029732 H          1 MOL1         0.0783
      77    C23     21.751432   23.560619   20.587569 C.3        1 MOL1         0.1043
      78    H37     21.691781   22.618501   20.026578 H          1 MOL1         0.0783
      79    O19     23.027390   23.640066   21.269930 O.3        1 MOL1        -0.3740
      80    C24     21.689330   24.717351   19.565201 C.3        1 MOL1         0.0138
      81    H38     20.782276   24.607785   18.956044 H          1 MOL1         0.0794
      82    H39     22.549365   24.636193   18.887037 H          1 MOL1         0.0794
      83    O20     21.691868   25.988976   20.220459 O.3        1 MOL1        -0.5486
      84    H40     22.510493   26.017426   20.764221 H          1 MOL1         0.3769
      85    C25     25.128828   17.689768   21.212087 C.3        1 MOL1         0.2972
      86    H41     25.839738   16.876882   21.015483 H          1 MOL1         0.0751
      87    O21     23.807041   17.188829   21.493623 O.3        1 MOL1        -0.3740
      88    C26     25.587618   18.556342   22.413879 C.3        1 MOL1         0.1003
      89    H42     26.559175   18.995442   22.150975 H          1 MOL1         0.0783
      90    O22     25.727700   17.771883   23.610739 O.3        1 MOL1        -0.5519
      91    H43     26.522083   17.206432   23.501998 H          1 MOL1         0.3769
      92    C27     24.590878   19.716127   22.657454 C.3        1 MOL1         0.1053
      93    H44     23.639843   19.279174   22.990610 H          1 MOL1         0.0783
      94    O23     25.117892   20.559734   23.687283 O.3        1 MOL1        -0.5519
      95    H45     25.473166   19.935760   24.360978 H          1 MOL1         0.3769
      96    C28     24.324645   20.522381   21.352958 C.3        1 MOL1         0.1018
      97    H46     25.194949   21.151373   21.122678 H          1 MOL1         0.0783
      98    C29     24.041015   19.600596   20.136385 C.3        1 MOL1         0.1043
      99    H47     23.043061   19.158045   20.248150 H          1 MOL1         0.0783
     100    O24     25.046175   18.560186   20.064936 O.3        1 MOL1        -0.3740
     101    C30     24.075401   20.375743   18.803228 C.3        1 MOL1         0.0138
     102    H48     25.089442   20.761816   18.633285 H          1 MOL1         0.0794
     103    H49     23.396452   21.236431   18.866602 H          1 MOL1         0.0794
     104    O25     23.676672   19.519122   17.731374 O.3        1 MOL1        -0.5486
     105    H50     24.256672   18.727445   17.785679 H          1 MOL1         0.3769
     106    C31     21.459699   13.834414   21.677690 C.3        1 MOL1         0.2972
     107    H51     21.016411   12.832443   21.740061 H          1 MOL1         0.0751
     108    O26     20.470152   14.840276   21.368407 O.3        1 MOL1        -0.3740
     109    C32     22.149357   14.192596   23.016694 C.3        1 MOL1         0.1003
     110    H52     22.955048   13.464158   23.176555 H          1 MOL1         0.0783
     111    O27     21.230731   14.127718   24.115594 O.3        1 MOL1        -0.5519
     112    H53     21.720884   14.523765   24.871059 H          1 MOL1         0.3769
     113    C33     22.785518   15.597571   22.945493 C.3        1 MOL1         0.1053
     114    H54     21.972184   16.327174   22.879632 H          1 MOL1         0.0783
     115    O28     23.553018   15.835493   24.131212 O.3        1 MOL1        -0.5519
     116    H55     24.092630   16.647237   23.968503 H          1 MOL1         0.3769
     117    C34     23.682493   15.768184   21.693928 C.3        1 MOL1         0.1018
     118    H56     24.651413   15.291111   21.892539 H          1 MOL1         0.0783
     119    C35     23.052907   15.181659   20.397161 C.3        1 MOL1         0.1043
     120    H57     22.265924   15.867543   20.057365 H          1 MOL1         0.0783
     121    O29     22.476534   13.876562   20.654520 O.3        1 MOL1        -0.3740
     122    C36     24.066609   15.030462   19.241391 C.3        1 MOL1         0.0138
     123    H58     24.431013   16.024846   18.951759 H          1 MOL1         0.0794
     124    H59     23.549039   14.605803   18.370719 H          1 MOL1         0.0794
     125    O30     25.163854   14.195615   19.622803 O.3        1 MOL1        -0.5486
     126    H60     24.773889   13.333132   19.888842 H          1 MOL1         0.3769
     127    N1      18.410104   19.203931   25.026546 N.4        1 MOL1        -0.5891
     128    H1      17.588081   18.665001   24.697486 H          1 MOL1         0.3726
     129    H2      18.015631   20.042468   25.465278 H          1 MOL1         0.3726
     130    H3      18.878870   18.652462   25.749283 H          1 MOL1         0.3726
     131    C1      19.317274   19.559223   23.868093 C.3        1 MOL1         0.0314
     132    H4      20.148076   20.160605   24.248184 H          1 MOL1         0.0999
     133    H5      18.732502   20.176462   23.180924 H          1 MOL1         0.0999
     134    C2      19.862913   18.324447   23.126860 C.3        1 MOL1        -0.1308
     135    H6      20.551133   17.791234   23.794661 H          1 MOL1         0.1025
     136    H7      19.045188   17.629739   22.904868 H          1 MOL1         0.1025
     137    C3      20.587116   18.686693   21.810751 C.3        1 MOL1        -0.1243
     138    H8      21.024253   17.777414   21.376888 H          1 MOL1         0.1025
     139    H9      21.425318   19.359420   22.031006 H          1 MOL1         0.1025
     140    C4      19.653121   19.335455   20.763053 C.3        1 MOL1        -0.2258
     141    H10     18.821136   18.666889   20.507043 H          1 MOL1         0.1036
     142    H11     20.205104   19.555292   19.840016 H          1 MOL1         0.1036
     143    H12     19.228650   20.278718   21.126776 H          1 MOL1         0.1036
@<TRIPOS>BOND
    1     1     2    1
    2     1     3    1
    3     1     4    1
    4     4     5    1
    5     4     6    1
    6     6     7    1
    7     4     8    1
    8     8     9    1
    9     8    10    1
   10    10    11    1
   11     8    12    1
   12    12    13    1
   13    12    14    1
   14    14    15    1
   15     1    16    1
   16    14    16    1
   17    14    17    1
   18    17    18    1
   19    17    19    1
   20    17    20    1
   21    20    21    1
   22    22    23    1
   23    22    24    1
   24    22    25    1
   25    25    26    1
   26    25    27    1
   27    27    28    1
   28    25    29    1
   29    29    30    1
   30    29    31    1
   31    31    32    1
   32     3    33    1
   33    29    33    1
   34    33    34    1
   35    33    35    1
   36    35    36    1
   37    22    37    1
   38    35    37    1
   39    35    38    1
   40    38    39    1
   41    38    40    1
   42    38    41    1
   43    41    42    1
   44    43    44    1
   45    43    45    1
   46    43    46    1
   47    46    47    1
   48    46    48    1
   49    48    49    1
   50    46    50    1
   51    50    51    1
   52    50    52    1
   53    52    53    1
   54    24    54    1
   55    50    54    1
   56    54    55    1
   57    54    56    1
   58    56    57    1
   59    43    58    1
   60    56    58    1
   61    56    59    1
   62    59    60    1
   63    59    61    1
   64    59    62    1
   65    62    63    1
   66    64    65    1
   67    64    66    1
   68    64    67    1
   69    67    68    1
   70    67    69    1
   71    69    70    1
   72    67    71    1
   73    71    72    1
   74    71    73    1
   75    73    74    1
   76    45    75    1
   77    71    75    1
   78    75    76    1
   79    75    77    1
   80    77    78    1
   81    64    79    1
   82    77    79    1
   83    77    80    1
   84    80    81    1
   85    80    82    1
   86    80    83    1
   87    83    84    1
   88    85    86    1
   89    85    87    1
   90    85    88    1
   91    88    89    1
   92    88    90    1
   93    90    91    1
   94    88    92    1
   95    92    93    1
   96    92    94    1
   97    94    95    1
   98    66    96    1
   99    92    96    1
  100    96    97    1
  101    96    98    1
  102    98    99    1
  103    85   100    1
  104    98   100    1
  105    98   101    1
  106   101   102    1
  107   101   103    1
  108   101   104    1
  109   104   105    1
  110   106   107    1
  111    12   108    1
  112   106   108    1
  113   106   109    1
  114   109   110    1
  115   109   111    1
  116   111   112    1
  117   109   113    1
  118   113   114    1
  119   113   115    1
  120   115   116    1
  121    87   117    1
  122   113   117    1
  123   117   118    1
  124   117   119    1
  125   119   120    1
  126   106   121    1
  127   119   121    1
  128   119   122    1
  129   122   123    1
  130   122   124    1
  131   122   125    1
  132   125   126    1
  133   127   128    1
  134   127   129    1
  135   127   130    1
  136   127   131    1
  137   131   132    1
  138   131   133    1
  139   131   134    1
  140   134   135    1
  141   134   136    1
  142   134   137    1
  143   137   138    1
  144   137   139    1
  145   137   140    1
  146   140   141    1
  147   140   142    1
  148   140   143    1
@<TRIPOS>SUBSTRUCTURE
       1 MOL1            1 RESIDUE      1      MOL     
       2 MOL1          143 RESIDUE      1      MOL     
@<SCITEGIC>MOL_PROPERTY
VM2 Rank
SciTegic.value.IntegerValue
2

@<SCITEGIC>MOL_PROPERTY
Conf_Id
SciTegic.value.IntegerValue
5076

@<SCITEGIC>MOL_PROPERTY
Probability
SciTegic.value.DoubleValue
1.34

@<SCITEGIC>MOL_PROPERTY
Sum Probability
SciTegic.value.DoubleValue
2.82

@<SCITEGIC>MOL_PROPERTY
Delta G
SciTegic.value.DoubleValue
0.063

@<SCITEGIC>MOL_PROPERTY
G
SciTegic.value.DoubleValue
539.995

@<SCITEGIC>MOL_PROPERTY
E
SciTegic.value.DoubleValue
351.564

@<SCITEGIC>MOL_PROPERTY
-TS
SciTegic.value.DoubleValue
188.430

@<SCITEGIC>MOL_PROPERTY
U+W
SciTegic.value.DoubleValue
225.476

@<SCITEGIC>MOL_PROPERTY
U
SciTegic.value.DoubleValue
302.385

@<SCITEGIC>MOL_PROPERTY
W
SciTegic.value.DoubleValue
-76.887

@<SCITEGIC>MOL_PROPERTY
W(PB)
SciTegic.value.DoubleValue
-83.005

@<SCITEGIC>MOL_PROPERTY
W(SA)
SciTegic.value.DoubleValue
6.118

@<SCITEGIC>MOL_PROPERTY
Valence
SciTegic.value.DoubleValue
144.045

@<SCITEGIC>MOL_PROPERTY
Coulomb
SciTegic.value.DoubleValue
179.126

@<SCITEGIC>MOL_PROPERTY
VdW
SciTegic.value.DoubleValue
-20.786

@<SCITEGIC>MOL_PROPERTY
VdW6
SciTegic.value.DoubleValue
-170.388

@<SCITEGIC>MOL_PROPERTY
VdW12
SciTegic.value.DoubleValue
149.602

@<SCITEGIC>MOL_PROPERTY
Bond
SciTegic.value.DoubleValue
4.427

@<SCITEGIC>MOL_PROPERTY
Angle
SciTegic.value.DoubleValue
10.220

@<SCITEGIC>MOL_PROPERTY
Pdih
SciTegic.value.DoubleValue
129.398

@<SCITEGIC>MOL_PROPERTY
Idih
SciTegic.value.DoubleValue
0.000

@<SCITEGIC>MOL_PROPERTY
Tether
SciTegic.value.DoubleValue
0.000

@<TRIPOS>MOLECULE
CD_guest-1_vm2_rndm.mol2 : vm2 host+ligand conformer 3
         143         148           2
SMALL
USER_CHARGES
 
@<TRIPOS>ATOM
       1    C1      16.382539   15.354103   20.637679 C.3        1 MOL1         0.2972
       2    H1      15.335025   15.232856   20.333870 H          1 MOL1         0.0751
       3    O1      16.666533   16.719124   21.008128 O.3        1 MOL1        -0.3740
       4    C2      16.727757   14.401458   21.814997 C.3        1 MOL1         0.1003
       5    H2      16.544752   13.376966   21.465365 H          1 MOL1         0.0783
       6    O2      15.912798   14.654911   22.967026 O.3        1 MOL1        -0.5519
       7    H3      16.266975   14.053318   23.660513 H          1 MOL1         0.3769
       8    C3      18.220683   14.507270   22.204843 C.3        1 MOL1         0.1053
       9    H4      18.384278   15.499314   22.643163 H          1 MOL1         0.0783
      10    O3      18.530242   13.495958   23.170691 O.3        1 MOL1        -0.5519
      11    H5      19.433288   13.704300   23.517808 H          1 MOL1         0.3769
      12    C4      19.146353   14.367364   20.968741 C.3        1 MOL1         0.1018
      13    H6      19.182612   13.315424   20.655429 H          1 MOL1         0.0783
      14    C5      18.669905   15.228136   19.768633 C.3        1 MOL1         0.1043
      15    H7      18.858113   16.284593   19.999625 H          1 MOL1         0.0783
      16    O4      17.254198   15.016322   19.538786 O.3        1 MOL1        -0.3740
      17    C6      19.411954   14.889824   18.456338 C.3        1 MOL1         0.0138
      18    H8      20.488128   15.052949   18.598790 H          1 MOL1         0.0794
      19    H9      19.074596   15.580523   17.672064 H          1 MOL1         0.0794
      20    O5      19.168417   13.536331   18.062305 O.3        1 MOL1        -0.5486
      21    H10     18.191004   13.434234   18.030286 H          1 MOL1         0.3769
      22    C7      14.860126   20.337752   21.816136 C.3        1 MOL1         0.2972
      23    H11     14.197370   21.170537   22.084288 H          1 MOL1         0.0751
      24    O6      16.067833   20.802065   21.177019 O.3        1 MOL1        -0.3740
      25    C8      15.234916   19.514961   23.077403 C.3        1 MOL1         0.1003
      26    H12     14.302977   19.113069   23.495115 H          1 MOL1         0.0783
      27    O7      15.873145   20.343656   24.063714 O.3        1 MOL1        -0.5519
      28    H13     15.684573   21.282448   23.825253 H          1 MOL1         0.3769
      29    C9      16.143890   18.321732   22.691547 C.3        1 MOL1         0.1053
      30    H14     17.097213   18.739237   22.348454 H          1 MOL1         0.0783
      31    O8      16.362896   17.464273   23.821586 O.3        1 MOL1        -0.5519
      32    H15     16.308706   16.536594   23.486629 H          1 MOL1         0.3769
      33    C10     15.560771   17.489505   21.523324 C.3        1 MOL1         0.1018
      34    H16     14.759554   16.847914   21.914254 H          1 MOL1         0.0783
      35    C11     15.015852   18.373260   20.363923 C.3        1 MOL1         0.1043
      36    H17     15.871938   18.798285   19.823173 H          1 MOL1         0.0783
      37    O9      14.196541   19.444116   20.897311 O.3        1 MOL1        -0.3740
      38    C12     14.161457   17.597722   19.336281 C.3        1 MOL1         0.0138
      39    H18     14.799692   16.874600   18.811801 H          1 MOL1         0.0794
      40    H19     13.787340   18.304811   18.583762 H          1 MOL1         0.0794
      41    O10     13.069834   16.924883   19.969989 O.3        1 MOL1        -0.5486
      42    H20     12.546365   17.618799   20.429339 H          1 MOL1         0.3769
      43    C13     18.364614   24.162361   20.681260 C.3        1 MOL1         0.2972
      44    H21     18.822847   25.132347   20.448759 H          1 MOL1         0.0751
      45    O11     19.364022   23.162234   20.975008 O.3        1 MOL1        -0.3740
      46    C14     17.362738   24.282159   21.859418 C.3        1 MOL1         0.1003
      47    H22     16.558971   24.952038   21.526928 H          1 MOL1         0.0783
      48    O12     17.967803   24.839214   23.035382 O.3        1 MOL1        -0.5519
      49    H23     18.636947   24.180675   23.350866 H          1 MOL1         0.3769
      50    C15     16.731316   22.906722   22.179348 C.3        1 MOL1         0.1053
      51    H24     17.518764   22.261475   22.592827 H          1 MOL1         0.0783
      52    O13     15.695351   23.093919   23.149934 O.3        1 MOL1        -0.5519
      53    H25     16.058211   23.751197   23.786498 H          1 MOL1         0.3769
      54    C16     16.162140   22.215005   20.908456 C.3        1 MOL1         0.1018
      55    H26     15.181092   22.643581   20.663507 H          1 MOL1         0.0783
      56    C17     17.084174   22.343625   19.664057 C.3        1 MOL1         0.1043
      57    H27     17.912925   21.631346   19.761365 H          1 MOL1         0.0783
      58    O14     17.598682   23.694352   19.552305 O.3        1 MOL1        -0.3740
      59    C18     16.329593   22.018359   18.358642 C.3        1 MOL1         0.0138
      60    H28     15.545597   22.770042   18.195650 H          1 MOL1         0.0794
      61    H29     15.839819   21.040290   18.458336 H          1 MOL1         0.0794
      62    O15     17.241863   21.997104   17.259240 O.3        1 MOL1        -0.5486
      63    H30     17.739037   22.844695   17.301196 H          1 MOL1         0.3769
      64    C19     23.277854   22.600173   22.208405 C.3        1 MOL1         0.2972
      65    H31     24.296143   22.710942   22.601828 H          1 MOL1         0.0751
      66    O16     23.107089   21.343401   21.521822 O.3        1 MOL1        -0.3740
      67    C20     22.242503   22.688019   23.360036 C.3        1 MOL1         0.1003
      68    H32     22.376069   23.665626   23.841364 H          1 MOL1         0.0783
      69    O17     22.438947   21.648531   24.333017 O.3        1 MOL1        -0.5519
      70    H33     23.380517   21.360382   24.261093 H          1 MOL1         0.3769
      71    C21     20.800528   22.609052   22.813044 C.3        1 MOL1         0.1053
      72    H34     20.652841   21.596554   22.421579 H          1 MOL1         0.0783
      73    O18     19.886824   22.852721   23.886772 O.3        1 MOL1        -0.5519
      74    H35     20.269486   22.366061   24.651019 H          1 MOL1         0.3769
      75    C22     20.557338   23.604779   21.652021 C.3        1 MOL1         0.1018
      76    H36     20.447495   24.615494   22.066604 H          1 MOL1         0.0783
      77    C23     21.706974   23.584422   20.606428 C.3        1 MOL1         0.1043
      78    H37     21.643175   22.644638   20.041917 H          1 MOL1         0.0783
      79    O19     22.990152   23.663496   21.275278 O.3        1 MOL1        -0.3740
      80    C24     21.631199   24.745382   19.589838 C.3        1 MOL1         0.0138
      81    H38     20.717820   24.636304   18.990160 H          1 MOL1         0.0794
      82    H39     22.483963   24.669063   18.902003 H          1 MOL1         0.0794
      83    O20     21.638002   26.014199   20.250485 O.3        1 MOL1        -0.5486
      84    H40     22.462291   26.042099   20.785639 H          1 MOL1         0.3769
      85    C25     25.101599   17.716949   21.169341 C.3        1 MOL1         0.2972
      86    H41     25.811663   16.905891   20.962416 H          1 MOL1         0.0751
      87    O21     23.782918   17.213140   21.460144 O.3        1 MOL1        -0.3740
      88    C26     25.570054   18.577882   22.371394 C.3        1 MOL1         0.1003
      89    H42     26.538879   19.019215   22.102219 H          1 MOL1         0.0783
      90    O22     25.721281   17.787446   23.562974 O.3        1 MOL1        -0.5519
      91    H43     26.514993   17.223061   23.444274 H          1 MOL1         0.3769
      92    C27     24.574467   19.735475   22.629640 C.3        1 MOL1         0.1053
      93    H44     23.627058   19.295975   22.969726 H          1 MOL1         0.0783
      94    O23     25.110489   20.574815   23.658311 O.3        1 MOL1        -0.5519
      95    H45     25.472554   19.948054   24.325776 H          1 MOL1         0.3769
      96    C28     24.294990   20.547725   21.331653 C.3        1 MOL1         0.1018
      97    H46     25.162121   21.179388   21.096755 H          1 MOL1         0.0783
      98    C29     24.002066   19.631758   20.112857 C.3        1 MOL1         0.1043
      99    H47     23.005630   19.187320   20.230721 H          1 MOL1         0.0783
     100    O24     25.007992   18.593124   20.027483 O.3        1 MOL1        -0.3740
     101    C30     24.024375   20.413751   18.783457 C.3        1 MOL1         0.0138
     102    H48     25.035365   20.805928   18.609383 H          1 MOL1         0.0794
     103    H49     23.341307   21.270528   18.855256 H          1 MOL1         0.0794
     104    O25     23.623915   19.560321   17.709727 O.3        1 MOL1        -0.5486
     105    H50     24.207187   18.770667   17.758040 H          1 MOL1         0.3769
     106    C31     21.441332   13.853730   21.642198 C.3        1 MOL1         0.2972
     107    H51     21.000909   12.850318   21.701638 H          1 MOL1         0.0751
     108    O26     20.446391   14.859509   21.350471 O.3        1 MOL1        -0.3740
     109    C32     22.143760   14.203440   22.976834 C.3        1 MOL1         0.1003
     110    H52     22.952212   13.475249   23.123324 H          1 MOL1         0.0783
     111    O27     21.236295   14.128950   24.084364 O.3        1 MOL1        -0.5519
     112    H53     21.733293   14.520388   24.837754 H          1 MOL1         0.3769
     113    C33     22.776908   15.609972   22.909584 C.3        1 MOL1         0.1053
     114    H54     21.961854   16.338749   22.857061 H          1 MOL1         0.0783
     115    O28     23.555901   15.840617   24.089240 O.3        1 MOL1        -0.5519
     116    H55     24.091595   16.655124   23.927404 H          1 MOL1         0.3769
     117    C34     23.661151   15.790915   21.650499 C.3        1 MOL1         0.1018
     118    H56     24.632259   15.312891   21.835676 H          1 MOL1         0.0783
     119    C35     23.018824   15.213835   20.355781 C.3        1 MOL1         0.1043
     120    H57     22.227166   15.901046   20.029827 H          1 MOL1         0.0783
     121    O29     22.447464   13.905720   20.608936 O.3        1 MOL1        -0.3740
     122    C36     24.020480   15.073512   19.188195 C.3        1 MOL1         0.0138
     123    H58     24.380242   16.070759   18.902660 H          1 MOL1         0.0794
     124    H59     23.494390   14.654955   18.319679 H          1 MOL1         0.0794
     125    O30     25.123000   14.237458   19.551320 O.3        1 MOL1        -0.5486
     126    H60     24.737202   13.372250   19.814558 H          1 MOL1         0.3769
     127    N1      18.411480   19.194937   25.050483 N.4        1 MOL1        -0.5891
     128    H1      17.587460   18.655743   24.726889 H          1 MOL1         0.3726
     129    H2      18.019401   20.030287   25.497401 H          1 MOL1         0.3726
     130    H3      18.888357   18.640921   25.765942 H          1 MOL1         0.3726
     131    C1      19.307085   19.558277   23.885440 C.3        1 MOL1         0.0314
     132    H4      20.140201   20.159304   24.261009 H          1 MOL1         0.0999
     133    H5      18.714788   20.178005   23.207023 H          1 MOL1         0.0999
     134    C2      19.848192   18.328545   23.132487 C.3        1 MOL1        -0.1308
     135    H6      20.542045   17.791790   23.791559 H          1 MOL1         0.1025
     136    H7      19.029270   17.634554   22.912554 H          1 MOL1         0.1025
     137    C3      20.561727   18.699369   21.812886 C.3        1 MOL1        -0.1243
     138    H8      20.994448   17.792867   21.368939 H          1 MOL1         0.1025
     139    H9      21.402213   19.370231   22.030417 H          1 MOL1         0.1025
     140    C4      19.619125   19.356026   20.778009 C.3        1 MOL1        -0.2258
     141    H10     18.782954   18.691305   20.525543 H          1 MOL1         0.1036
     142    H11     20.161949   19.581009   19.850708 H          1 MOL1         0.1036
     143    H12     19.200451   20.297801   21.151679 H          1 MOL1         0.1036
@<TRIPOS>BOND
    1     1     2    1
    2     1     3    1
    3     1     4    1
    4     4     5    1
    5     4     6    1
    6     6     7    1
    7     4     8    1
    8     8     9    1
    9     8    10    1
   10    10    11    1
   11     8    12    1
   12    12    13    1
   13    12    14    1
   14    14    15    1
   15     1    16    1
   16    14    16    1
   17    14    17    1
   18    17    18    1
   19    17    19    1
   20    17    20    1
   21    20    21    1
   22    22    23    1
   23    22    24    1
   24    22    25    1
   25    25    26    1
   26    25    27    1
   27    27    28    1
   28    25    29    1
   29    29    30    1
   30    29    31    1
   31    31    32    1
   32     3    33    1
   33    29    33    1
   34    33    34    1
   35    33    35    1
   36    35    36    1
   37    22    37    1
   38    35    37    1
   39    35    38    1
   40    38    39    1
   41    38    40    1
   42    38    41    1
   43    41    42    1
   44    43    44    1
   45    43    45    1
   46    43    46    1
   47    46    47    1
   48    46    48    1
   49    48    49    1
   50    46    50    1
   51    50    51    1
   52    50    52    1
   53    52    53    1
   54    24    54    1
   55    50    54    1
   56    54    55    1
   57    54    56    1
   58    56    57    1
   59    43    58    1
   60    56    58    1
   61    56    59    1
   62    59    60    1
   63    59    61    1
   64    59    62    1
   65    62    63    1
   66    64    65    1
   67    64    66    1
   68    64    67    1
   69    67    68    1
   70    67    69    1
   71    69    70    1
   72    67    71    1
   73    71    72    1
   74    71    73    1
   75    73    74    1
   76    45    75    1
   77    71    75    1
   78    75    76    1
   79    75    77    1
   80    77    78    1
   81    64    79    1
   82    77    79    1
   83    77    80    1
   84    80    81    1
   85    80    82    1
   86    80    83    1
   87    83    84    1
   88    85    86    1
   89    85    87    1
   90    85    88    1
   91    88    89    1
   92    88    90    1
   93    90    91    1
   94    88    92    1
   95    92    93    1
   96    92    94    1
   97    94    95    1
   98    66    96    1
   99    92    96    1
  100    96    97    1
  101    96    98    1
  102    98    99    1
  103    85   100    1
  104    98   100    1
  105    98   101    1
  106   101   102    1
  107   101   103    1
  108   101   104    1
  109   104   105    1
  110   106   107    1
  111    12   108    1
  112   106   108    1
  113   106   109    1
  114   109   110    1
  115   109   111    1
  116   111   112    1
  117   109   113    1
  118   113   114    1
  119   113   115    1
  120   115   116    1
  121    87   117    1
  122   113   117    1
  123   117   118    1
  124   117   119    1
  125   119   120    1
  126   106   121    1
  127   119   121    1
  128   119   122    1
  129   122   123    1
  130   122   124    1
  131   122   125    1
  132   125   126    1
  133   127   128    1
  134   127   129    1
  135   127   130    1
  136   127   131    1
  137   131   132    1
  138   131   133    1
  139   131   134    1
  140   134   135    1
  141   134   136    1
  142   134   137    1
  143   137   138    1
  144   137   139    1
  145   137   140    1
  146   140   141    1
  147   140   142    1
  148   140   143    1
@<TRIPOS>SUBSTRUCTURE
       1 MOL1            1 RESIDUE      1      MOL     
       2 MOL1          143 RESIDUE      1      MOL     
@<SCITEGIC>MOL_PROPERTY
VM2 Rank
SciTegic.value.IntegerValue
3

@<SCITEGIC>MOL_PROPERTY
Conf_Id
SciTegic.value.IntegerValue
17221

@<SCITEGIC>MOL_PROPERTY
Probability
SciTegic.value.DoubleValue
1.32

@<SCITEGIC>MOL_PROPERTY
Sum Probability
SciTegic.value.DoubleValue
4.15

@<SCITEGIC>MOL_PROPERTY
Delta G
SciTegic.value.DoubleValue
0.069

@<SCITEGIC>MOL_PROPERTY
G
SciTegic.value.DoubleValue
540.001

@<SCITEGIC>MOL_PROPERTY
E
SciTegic.value.DoubleValue
351.813

@<SCITEGIC>MOL_PROPERTY
-TS
SciTegic.value.DoubleValue
188.188

@<SCITEGIC>MOL_PROPERTY
U+W
SciTegic.value.DoubleValue
225.724

@<SCITEGIC>MOL_PROPERTY
U
SciTegic.value.DoubleValue
302.114

@<SCITEGIC>MOL_PROPERTY
W
SciTegic.value.DoubleValue
-76.390

@<SCITEGIC>MOL_PROPERTY
W(PB)
SciTegic.value.DoubleValue
-82.511

@<SCITEGIC>MOL_PROPERTY
W(SA)
SciTegic.value.DoubleValue
6.121

@<SCITEGIC>MOL_PROPERTY
Valence
SciTegic.value.DoubleValue
144.172

@<SCITEGIC>MOL_PROPERTY
Coulomb
SciTegic.value.DoubleValue
178.967

@<SCITEGIC>MOL_PROPERTY
VdW
SciTegic.value.DoubleValue
-21.025

@<SCITEGIC>MOL_PROPERTY
VdW6
SciTegic.value.DoubleValue
-169.909

@<SCITEGIC>MOL_PROPERTY
VdW12
SciTegic.value.DoubleValue
148.883

@<SCITEGIC>MOL_PROPERTY
Bond
SciTegic.value.DoubleValue
4.390

@<SCITEGIC>MOL_PROPERTY
Angle
SciTegic.value.DoubleValue
10.145

@<SCITEGIC>MOL_PROPERTY
Pdih
SciTegic.value.DoubleValue
129.638

@<SCITEGIC>MOL_PROPERTY
Idih
SciTegic.value.DoubleValue
0.000

@<SCITEGIC>MOL_PROPERTY
Tether
SciTegic.value.DoubleValue
0.000

@<TRIPOS>MOLECULE
CD_guest-1_vm2_rndm.mol2 : vm2 host+ligand conformer 4
         143         148           2
SMALL
USER_CHARGES
 
@<TRIPOS>ATOM
       1    C1      16.421326   15.302440   20.665621 C.3        1 MOL1         0.2972
       2    H1      15.379060   15.172279   20.347860 H          1 MOL1         0.0751
       3    O1      16.694481   16.673207   21.021763 O.3        1 MOL1        -0.3740
       4    C2      16.754183   14.366923   21.860442 C.3        1 MOL1         0.1003
       5    H2      16.572247   13.337822   21.524097 H          1 MOL1         0.0783
       6    O2      15.929421   14.638387   23.001355 O.3        1 MOL1        -0.5519
       7    H3      16.273087   14.043652   23.705834 H          1 MOL1         0.3769
       8    C3      18.243912   14.475456   22.262542 C.3        1 MOL1         0.1053
       9    H4      18.402997   15.469756   22.697341 H          1 MOL1         0.0783
      10    O3      18.547231   13.469123   23.235409 O.3        1 MOL1        -0.5519
      11    H5      19.445713   13.682398   23.591436 H          1 MOL1         0.3769
      12    C4      19.180401   14.329950   21.035212 C.3        1 MOL1         0.1018
      13    H6      19.213663   13.278732   20.718663 H          1 MOL1         0.0783
      14    C5      18.720974   15.192506   19.832383 C.3        1 MOL1         0.1043
      15    H7      18.902005   16.250435   20.062373 H          1 MOL1         0.0783
      16    O4      17.312642   14.955041   19.585124 O.3        1 MOL1        -0.3740
      17    C6      19.485443   14.837412   18.540433 C.3        1 MOL1         0.0138
      18    H8      19.244106   13.806819   18.247467 H          1 MOL1         0.0794
      19    H9      20.565372   14.885399   18.730697 H          1 MOL1         0.0794
      20    O5      19.133722   15.751192   17.500221 O.3        1 MOL1        -0.5486
      21    H10     18.151507   15.749815   17.456523 H          1 MOL1         0.3769
      22    C7      14.882141   20.303149   21.744465 C.3        1 MOL1         0.2972
      23    H11     14.217758   21.141302   21.991038 H          1 MOL1         0.0751
      24    O6      16.095211   20.755146   21.105529 O.3        1 MOL1        -0.3740
      25    C8      15.245889   19.504947   23.024824 C.3        1 MOL1         0.1003
      26    H12     14.309974   19.113267   23.443333 H          1 MOL1         0.0783
      27    O7      15.879079   20.350729   23.999860 O.3        1 MOL1        -0.5519
      28    H13     15.693608   21.285272   23.742813 H          1 MOL1         0.3769
      29    C9      16.154950   18.302547   22.669605 C.3        1 MOL1         0.1053
      30    H14     17.111804   18.712156   22.326727 H          1 MOL1         0.0783
      31    O8      16.362833   17.465783   23.817176 O.3        1 MOL1        -0.5519
      32    H15     16.316337   16.532310   23.497445 H          1 MOL1         0.3769
      33    C10     15.581665   17.448577   21.512457 C.3        1 MOL1         0.1018
      34    H16     14.779111   16.811704   21.908259 H          1 MOL1         0.0783
      35    C11     15.045200   18.310262   20.332829 C.3        1 MOL1         0.1043
      36    H17     15.904969   18.725033   19.790180 H          1 MOL1         0.0783
      37    O9      14.223323   19.390933   20.840591 O.3        1 MOL1        -0.3740
      38    C12     14.197195   17.516382   19.313984 C.3        1 MOL1         0.0138
      39    H18     14.838845   16.784871   18.805682 H          1 MOL1         0.0794
      40    H19     13.826907   18.210305   18.547388 H          1 MOL1         0.0794
      41    O10     13.102391   16.853651   19.952818 O.3        1 MOL1        -0.5486
      42    H20     12.575465   17.555163   20.396412 H          1 MOL1         0.3769
      43    C13     18.407283   24.096829   20.571736 C.3        1 MOL1         0.2972
      44    H21     18.874332   25.060344   20.330027 H          1 MOL1         0.0751
      45    O11     19.397769   23.095914   20.891902 O.3        1 MOL1        -0.3740
      46    C14     17.392779   24.241894   21.736396 C.3        1 MOL1         0.1003
      47    H22     16.595165   24.908607   21.383324 H          1 MOL1         0.0783
      48    O12     17.988389   24.817580   22.908355 O.3        1 MOL1        -0.5519
      49    H23     18.650258   24.161211   23.243144 H          1 MOL1         0.3769
      50    C15     16.752531   22.875372   22.075489 C.3        1 MOL1         0.1053
      51    H24     17.534861   22.233493   22.503548 H          1 MOL1         0.0783
      52    O13     15.713539   23.083451   23.038806 O.3        1 MOL1        -0.5519
      53    H25     16.075541   23.752703   23.663235 H          1 MOL1         0.3769
      54    C16     16.186870   22.164580   20.813809 C.3        1 MOL1         0.1018
      55    H26     15.204238   22.586444   20.564219 H          1 MOL1         0.0783
      56    C17     17.113066   22.278113   19.568863 C.3        1 MOL1         0.1043
      57    H27     17.936697   21.562521   19.683295 H          1 MOL1         0.0783
      58    O14     17.653712   23.617351   19.439976 O.3        1 MOL1        -0.3740
      59    C18     16.383399   21.935115   18.251308 C.3        1 MOL1         0.0138
      60    H28     15.981361   20.915327   18.319658 H          1 MOL1         0.0794
      61    H29     17.112455   21.948453   17.430150 H          1 MOL1         0.0794
      62    O15     15.327687   22.865003   17.991209 O.3        1 MOL1        -0.5486
      63    H30     15.738066   23.758133   18.021683 H          1 MOL1         0.3769
      64    C19     23.298833   22.552815   22.181544 C.3        1 MOL1         0.2972
      65    H31     24.311883   22.671830   22.585967 H          1 MOL1         0.0751
      66    O16     23.138400   21.283985   21.515122 O.3        1 MOL1        -0.3740
      67    C20     22.249045   22.659303   23.318410 C.3        1 MOL1         0.1003
      68    H32     22.376263   23.644885   23.784970 H          1 MOL1         0.0783
      69    O17     22.433839   21.636309   24.310967 O.3        1 MOL1        -0.5519
      70    H33     23.376020   21.346628   24.254681 H          1 MOL1         0.3769
      71    C21     20.813994   22.570412   22.754978 C.3        1 MOL1         0.1053
      72    H34     20.671463   21.551377   22.378860 H          1 MOL1         0.0783
      73    O18     19.887075   22.832748   23.812911 O.3        1 MOL1        -0.5519
      74    H35     20.259872   22.359252   24.590172 H          1 MOL1         0.3769
      75    C22     20.585369   23.546265   21.574513 C.3        1 MOL1         0.1018
      76    H36     20.473860   24.563986   21.971142 H          1 MOL1         0.0783
      77    C23     21.747079   23.506680   20.542986 C.3        1 MOL1         0.1043
      78    H37     21.690179   22.556540   19.995364 H          1 MOL1         0.0783
      79    O19     23.021973   23.598848   21.225858 O.3        1 MOL1        -0.3740
      80    C24     21.683573   24.648753   19.504353 C.3        1 MOL1         0.0138
      81    H38     20.777501   24.528520   18.895744 H          1 MOL1         0.0794
      82    H39     22.544604   24.560029   18.828404 H          1 MOL1         0.0794
      83    O20     21.682399   25.929489   20.141632 O.3        1 MOL1        -0.5486
      84    H40     22.500271   25.967465   20.685937 H          1 MOL1         0.3769
      85    C25     25.142342   17.657689   21.242126 C.3        1 MOL1         0.2972
      86    H41     25.854773   16.843417   21.057233 H          1 MOL1         0.0751
      87    O21     23.819620   17.158971   21.523521 O.3        1 MOL1        -0.3740
      88    C26     25.595374   18.537440   22.436403 C.3        1 MOL1         0.1003
      89    H42     26.566257   18.976948   22.171681 H          1 MOL1         0.0783
      90    O22     25.734871   17.765535   23.641411 O.3        1 MOL1        -0.5519
      91    H43     26.532020   17.202448   23.540788 H          1 MOL1         0.3769
      92    C27     24.594272   19.696405   22.665140 C.3        1 MOL1         0.1053
      93    H44     23.643207   19.260046   22.999054 H          1 MOL1         0.0783
      94    O23     25.114898   20.551979   23.688335 O.3        1 MOL1        -0.5519
      95    H45     25.469372   19.935907   24.369674 H          1 MOL1         0.3769
      96    C28     24.330774   20.489121   21.351963 C.3        1 MOL1         0.1018
      97    H46     25.199483   21.119951   21.120637 H          1 MOL1         0.0783
      98    C29     24.057559   19.556308   20.141295 C.3        1 MOL1         0.1043
      99    H47     23.059183   19.113382   20.248615 H          1 MOL1         0.0783
     100    O24     25.064507   18.516510   20.085939 O.3        1 MOL1        -0.3740
     101    C30     24.102605   20.321579   18.802696 C.3        1 MOL1         0.0138
     102    H48     25.116818   20.710533   18.640546 H          1 MOL1         0.0794
     103    H49     23.419625   21.179974   18.852671 H          1 MOL1         0.0794
     104    O25     23.719009   19.455883   17.732801 O.3        1 MOL1        -0.5486
     105    H50     24.297412   18.664258   17.802454 H          1 MOL1         0.3769
     106    C31     21.467395   13.808835   21.733980 C.3        1 MOL1         0.2972
     107    H51     21.022318   12.808130   21.803726 H          1 MOL1         0.0751
     108    O26     20.478406   14.815255   21.428285 O.3        1 MOL1        -0.3740
     109    C32     22.165827   14.170966   23.066933 C.3        1 MOL1         0.1003
     110    H52     22.971143   13.441767   23.225207 H          1 MOL1         0.0783
     111    O27     21.251898   14.111333   24.170154 O.3        1 MOL1        -0.5519
     112    H53     21.745926   14.508991   24.922215 H          1 MOL1         0.3769
     113    C33     22.803477   15.574794   22.986746 C.3        1 MOL1         0.1053
     114    H54     21.991216   16.306154   22.923967 H          1 MOL1         0.0783
     115    O28     23.579151   15.814703   24.166649 O.3        1 MOL1        -0.5519
     116    H55     24.112917   16.629777   24.001201 H          1 MOL1         0.3769
     117    C34     23.692442   15.739225   21.728584 C.3        1 MOL1         0.1018
     118    H56     24.661280   15.259672   21.921535 H          1 MOL1         0.0783
     119    C35     23.052240   15.151357   20.437501 C.3        1 MOL1         0.1043
     120    H57     22.264970   15.839160   20.101744 H          1 MOL1         0.0783
     121    O29     22.474190   13.847245   20.700695 O.3        1 MOL1        -0.3740
     122    C36     24.057903   14.996721   19.275225 C.3        1 MOL1         0.0138
     123    H58     24.425670   15.989706   18.984993 H          1 MOL1         0.0794
     124    H59     23.533013   14.576474   18.406858 H          1 MOL1         0.0794
     125    O30     25.153027   14.155595   19.648850 O.3        1 MOL1        -0.5486
     126    H60     24.760319   13.295735   19.919221 H          1 MOL1         0.3769
     127    N1      18.413030   19.212831   25.017733 N.4        1 MOL1        -0.5891
     128    H1      17.587216   18.673189   24.699502 H          1 MOL1         0.3726
     129    H2      18.024177   20.059673   25.445445 H          1 MOL1         0.3726
     130    H3      18.880871   18.669718   25.747383 H          1 MOL1         0.3726
     131    C1      19.319622   19.546499   23.852239 C.3        1 MOL1         0.0314
     132    H4      20.154975   20.147686   24.222566 H          1 MOL1         0.0999
     133    H5      18.737399   20.158200   23.157951 H          1 MOL1         0.0999
     134    C2      19.856302   18.298889   23.126020 C.3        1 MOL1        -0.1308
     135    H6      20.538724   17.766896   23.800672 H          1 MOL1         0.1025
     136    H7      19.032939   17.609102   22.909981 H          1 MOL1         0.1025
     137    C3      20.585624   18.640032   21.807054 C.3        1 MOL1        -0.1243
     138    H8      21.015429   17.722011   21.384209 H          1 MOL1         0.1025
     139    H9      21.429295   19.308382   22.020141 H          1 MOL1         0.1025
     140    C4      19.658192   19.284153   20.750711 C.3        1 MOL1        -0.2258
     141    H10     18.818127   18.621896   20.504735 H          1 MOL1         0.1036
     142    H11     20.211551   19.482656   19.823604 H          1 MOL1         0.1036
     143    H12     19.245390   20.237654   21.100530 H          1 MOL1         0.1036
@<TRIPOS>BOND
    1     1     2    1
    2     1     3    1
    3     1     4    1
    4     4     5    1
    5     4     6    1
    6     6     7    1
    7     4     8    1
    8     8     9    1
    9     8    10    1
   10    10    11    1
   11     8    12    1
   12    12    13    1
   13    12    14    1
   14    14    15    1
   15     1    16    1
   16    14    16    1
   17    14    17    1
   18    17    18    1
   19    17    19    1
   20    17    20    1
   21    20    21    1
   22    22    23    1
   23    22    24    1
   24    22    25    1
   25    25    26    1
   26    25    27    1
   27    27    28    1
   28    25    29    1
   29    29    30    1
   30    29    31    1
   31    31    32    1
   32     3    33    1
   33    29    33    1
   34    33    34    1
   35    33    35    1
   36    35    36    1
   37    22    37    1
   38    35    37    1
   39    35    38    1
   40    38    39    1
   41    38    40    1
   42    38    41    1
   43    41    42    1
   44    43    44    1
   45    43    45    1
   46    43    46    1
   47    46    47    1
   48    46    48    1
   49    48    49    1
   50    46    50    1
   51    50    51    1
   52    50    52    1
   53    52    53    1
   54    24    54    1
   55    50    54    1
   56    54    55    1
   57    54    56    1
   58    56    57    1
   59    43    58    1
   60    56    58    1
   61    56    59    1
   62    59    60    1
   63    59    61    1
   64    59    62    1
   65    62    63    1
   66    64    65    1
   67    64    66    1
   68    64    67    1
   69    67    68    1
   70    67    69    1
   71    69    70    1
   72    67    71    1
   73    71    72    1
   74    71    73    1
   75    73    74    1
   76    45    75    1
   77    71    75    1
   78    75    76    1
   79    75    77    1
   80    77    78    1
   81    64    79    1
   82    77    79    1
   83    77    80    1
   84    80    81    1
   85    80    82    1
   86    80    83    1
   87    83    84    1
   88    85    86    1
   89    85    87    1
   90    85    88    1
   91    88    89    1
   92    88    90    1
   93    90    91    1
   94    88    92    1
   95    92    93    1
   96    92    94    1
   97    94    95    1
   98    66    96    1
   99    92    96    1
  100    96    97    1
  101    96    98    1
  102    98    99    1
  103    85   100    1
  104    98   100    1
  105    98   101    1
  106   101   102    1
  107   101   103    1
  108   101   104    1
  109   104   105    1
  110   106   107    1
  111    12   108    1
  112   106   108    1
  113   106   109    1
  114   109   110    1
  115   109   111    1
  116   111   112    1
  117   109   113    1
  118   113   114    1
  119   113   115    1
  120   115   116    1
  121    87   117    1
  122   113   117    1
  123   117   118    1
  124   117   119    1
  125   119   120    1
  126   106   121    1
  127   119   121    1
  128   119   122    1
  129   122   123    1
  130   122   124    1
  131   122   125    1
  132   125   126    1
  133   127   128    1
  134   127   129    1
  135   127   130    1
  136   127   131    1
  137   131   132    1
  138   131   133    1
  139   131   134    1
  140   134   135    1
  141   134   136    1
  142   134   137    1
  143   137   138    1
  144   137   139    1
  145   137   140    1
  146   140   141    1
  147   140   142    1
  148   140   143    1
@<TRIPOS>SUBSTRUCTURE
       1 MOL1            1 RESIDUE      1      MOL     
       2 MOL1          143 RESIDUE      1      MOL     
@<SCITEGIC>MOL_PROPERTY
VM2 Rank
SciTegic.value.IntegerValue
4

@<SCITEGIC>MOL_PROPERTY
Conf_Id
SciTegic.value.IntegerValue
6883

@<SCITEGIC>MOL_PROPERTY
Probability
SciTegic.value.DoubleValue
1.27

@<SCITEGIC>MOL_PROPERTY
Sum Probability
SciTegic.value.DoubleValue
5.42

@<SCITEGIC>MOL_PROPERTY
Delta G
SciTegic.value.DoubleValue
0.092

@<SCITEGIC>MOL_PROPERTY
G
SciTegic.value.DoubleValue
540.023

@<SCITEGIC>MOL_PROPERTY
E
SciTegic.value.DoubleValue
351.778

@<SCITEGIC>MOL_PROPERTY
-TS
SciTegic.value.DoubleValue
188.246

@<SCITEGIC>MOL_PROPERTY
U+W
SciTegic.value.DoubleValue
225.689

@<SCITEGIC>MOL_PROPERTY
U
SciTegic.value.DoubleValue
301.846

@<SCITEGIC>MOL_PROPERTY
W
SciTegic.value.DoubleValue
-76.157

@<SCITEGIC>MOL_PROPERTY
W(PB)
SciTegic.value.DoubleValue
-82.248

@<SCITEGIC>MOL_PROPERTY
W(SA)
SciTegic.value.DoubleValue
6.091

@<SCITEGIC>MOL_PROPERTY
Valence
SciTegic.value.DoubleValue
144.178

@<SCITEGIC>MOL_PROPERTY
Coulomb
SciTegic.value.DoubleValue
178.843

@<SCITEGIC>MOL_PROPERTY
VdW
SciTegic.value.DoubleValue
-21.175

@<SCITEGIC>MOL_PROPERTY
VdW6
SciTegic.value.DoubleValue
-169.994

@<SCITEGIC>MOL_PROPERTY
VdW12
SciTegic.value.DoubleValue
148.819

@<SCITEGIC>MOL_PROPERTY
Bond
SciTegic.value.DoubleValue
4.387

@<SCITEGIC>MOL_PROPERTY
Angle
SciTegic.value.DoubleValue
10.171

@<SCITEGIC>MOL_PROPERTY
Pdih
SciTegic.value.DoubleValue
129.621

@<SCITEGIC>MOL_PROPERTY
Idih
SciTegic.value.DoubleValue
0.000

@<SCITEGIC>MOL_PROPERTY
Tether
SciTegic.value.DoubleValue
0.000

@<TRIPOS>MOLECULE
CD_guest-1_vm2_rndm.mol2 : vm2 host+ligand conformer 5
         143         148           2
SMALL
USER_CHARGES
 
@<TRIPOS>ATOM
       1    C1      16.353415   15.300392   20.724300 C.3        1 MOL1         0.2972
       2    H1      15.306212   15.169999   20.423286 H          1 MOL1         0.0751
       3    O1      16.630988   16.670495   21.079553 O.3        1 MOL1        -0.3740
       4    C2      16.706737   14.362373   21.911274 C.3        1 MOL1         0.1003
       5    H2      16.520946   13.333800   21.575428 H          1 MOL1         0.0783
       6    O2      15.899923   14.629954   23.065851 O.3        1 MOL1        -0.5519
       7    H3      16.255847   14.034276   23.763419 H          1 MOL1         0.3769
       8    C3      18.202627   14.472363   22.289554 C.3        1 MOL1         0.1053
       9    H4      18.367317   15.466595   22.722311 H          1 MOL1         0.0783
      10    O3      18.522667   13.466235   23.257263 O.3        1 MOL1        -0.5519
      11    H5      19.420390   13.689380   23.609072 H          1 MOL1         0.3769
      12    C4      19.119095   14.329125   21.046701 C.3        1 MOL1         0.1018
      13    H6      19.148125   13.278607   20.727388 H          1 MOL1         0.0783
      14    C5      18.639352   15.193905   19.853440 C.3        1 MOL1         0.1043
      15    H7      18.823616   16.251413   20.082932 H          1 MOL1         0.0783
      16    O4      17.227320   14.956549   19.628491 O.3        1 MOL1        -0.3740
      17    C6      19.383179   14.841759   18.548626 C.3        1 MOL1         0.0138
      18    H8      19.127419   13.816123   18.250513 H          1 MOL1         0.0794
      19    H9      20.465897   14.876792   18.725062 H          1 MOL1         0.0794
      20    O5      19.028254   15.767801   17.520429 O.3        1 MOL1        -0.5486
      21    H10     18.045684   15.775556   17.486739 H          1 MOL1         0.3769
      22    C7      14.830387   20.298376   21.840381 C.3        1 MOL1         0.2972
      23    H11     14.171319   21.137017   22.099230 H          1 MOL1         0.0751
      24    O6      16.034338   20.749267   21.184514 O.3        1 MOL1        -0.3740
      25    C8      15.212120   19.495710   23.112586 C.3        1 MOL1         0.1003
      26    H12     14.282367   19.102788   23.543484 H          1 MOL1         0.0783
      27    O7      15.859897   20.338384   24.080705 O.3        1 MOL1        -0.5519
      28    H13     15.675162   21.273836   23.826575 H          1 MOL1         0.3769
      29    C9      16.115873   18.294690   22.739974 C.3        1 MOL1         0.1053
      30    H14     17.067136   18.705716   22.383746 H          1 MOL1         0.0783
      31    O8      16.341981   17.454911   23.881832 O.3        1 MOL1        -0.5519
      32    H15     16.291581   16.522281   23.560229 H          1 MOL1         0.3769
      33    C10     15.525405   17.444322   21.588844 C.3        1 MOL1         0.1018
      34    H16     14.728733   16.806210   21.994424 H          1 MOL1         0.0783
      35    C11     14.972047   18.309746   20.419567 C.3        1 MOL1         0.1043
      36    H17     15.824342   18.724599   19.865038 H          1 MOL1         0.0783
      37    O9      14.158424   19.390641   20.941590 O.3        1 MOL1        -0.3740
      38    C12     14.108745   17.518607   19.411507 C.3        1 MOL1         0.0138
      39    H18     14.742177   16.786810   18.893382 H          1 MOL1         0.0794
      40    H19     13.728915   18.213923   18.650921 H          1 MOL1         0.0794
      41    O10     13.021956   16.856708   20.064706 O.3        1 MOL1        -0.5486
      42    H20     12.502757   17.558148   20.517417 H          1 MOL1         0.3769
      43    C13     18.338799   24.092066   20.611860 C.3        1 MOL1         0.2972
      44    H21     18.798036   25.056667   20.359757 H          1 MOL1         0.0751
      45    O11     19.338031   23.092512   20.908637 O.3        1 MOL1        -0.3740
      46    C14     17.350549   24.233688   21.799175 C.3        1 MOL1         0.1003
      47    H22     16.546210   24.902333   21.465579 H          1 MOL1         0.0783
      48    O12     17.970727   24.805236   22.960214 O.3        1 MOL1        -0.5519
      49    H23     18.639299   24.147671   23.278906 H          1 MOL1         0.3769
      50    C15     16.716260   22.866281   22.146561 C.3        1 MOL1         0.1053
      51    H24     17.505008   22.223802   22.561826 H          1 MOL1         0.0783
      52    O13     15.691145   23.073284   23.124594 O.3        1 MOL1        -0.5519
      53    H25     16.063642   23.738234   23.747474 H          1 MOL1         0.3769
      54    C16     16.130663   22.157518   20.892738 C.3        1 MOL1         0.1018
      55    H26     15.148486   22.585966   20.652143 H          1 MOL1         0.0783
      56    C17     17.039261   22.263924   19.636335 C.3        1 MOL1         0.1043
      57    H27     17.866094   21.549678   19.734726 H          1 MOL1         0.0783
      58    O14     17.558108   23.610638   19.498792 O.3        1 MOL1        -0.3740
      59    C18     16.268973   21.922795   18.344242 C.3        1 MOL1         0.0138
      60    H28     15.483642   22.673032   18.181037 H          1 MOL1         0.0794
      61    H29     15.779804   20.946439   18.462127 H          1 MOL1         0.0794
      62    O15     17.168221   21.887124   17.234519 O.3        1 MOL1        -0.5486
      63    H30     17.666881   22.734476   17.260714 H          1 MOL1         0.3769
      64    C19     23.261792   22.537755   22.116045 C.3        1 MOL1         0.2972
      65    H31     24.283065   22.653150   22.500337 H          1 MOL1         0.0751
      66    O16     23.086038   21.271733   21.447150 O.3        1 MOL1        -0.3740
      67    C20     22.236279   22.639990   23.275087 C.3        1 MOL1         0.1003
      68    H32     22.375816   23.622525   23.744535 H          1 MOL1         0.0783
      69    O17     22.439098   21.610823   24.257765 O.3        1 MOL1        -0.5519
      70    H33     23.378969   21.318602   24.179402 H          1 MOL1         0.3769
      71    C21     20.789561   22.558271   22.741093 C.3        1 MOL1         0.1053
      72    H34     20.636381   21.541420   22.363401 H          1 MOL1         0.0783
      73    O18     19.885718   22.817790   23.819498 O.3        1 MOL1        -0.5519
      74    H35     20.274387   22.340889   24.586836 H          1 MOL1         0.3769
      75    C22     20.538555   23.539999   21.569766 C.3        1 MOL1         0.1018
      76    H36     20.435040   24.556045   21.972731 H          1 MOL1         0.0783
      77    C23     21.679738   23.504182   20.515476 C.3        1 MOL1         0.1043
      78    H37     21.611904   22.556879   19.964351 H          1 MOL1         0.0783
      79    O19     22.966847   23.591488   21.174482 O.3        1 MOL1        -0.3740
      80    C24     21.598073   24.651262   19.483755 C.3        1 MOL1         0.0138
      81    H38     20.681127   24.534262   18.891080 H          1 MOL1         0.0794
      82    H39     22.446913   24.565068   18.792133 H          1 MOL1         0.0794
      83    O20     21.609050   25.929022   20.126952 O.3        1 MOL1        -0.5486
      84    H40     22.437093   25.964060   20.655858 H          1 MOL1         0.3769
      85    C25     25.076572   17.644394   21.113291 C.3        1 MOL1         0.2972
      86    H41     25.780953   16.827057   20.911703 H          1 MOL1         0.0751
      87    O21     23.758387   17.149758   21.422098 O.3        1 MOL1        -0.3740
      88    C26     25.561460   18.521998   22.296873 C.3        1 MOL1         0.1003
      89    H42     26.524829   18.962471   22.007388 H          1 MOL1         0.0783
      90    O22     25.733072   17.747609   23.496083 O.3        1 MOL1        -0.5519
      91    H43     26.528487   17.186316   23.373971 H          1 MOL1         0.3769
      92    C27     24.566847   19.680175   22.554513 C.3        1 MOL1         0.1053
      93    H44     23.621686   19.242133   22.902594 H          1 MOL1         0.0783
      94    O23     25.106899   20.526149   23.575830 O.3        1 MOL1        -0.5519
      95    H45     25.477608   19.903469   24.242361 H          1 MOL1         0.3769
      96    C28     24.279175   20.483699   21.253344 C.3        1 MOL1         0.1018
      97    H46     25.140953   21.121707   21.016317 H          1 MOL1         0.0783
      98    C29     23.988884   19.558854   20.038452 C.3        1 MOL1         0.1043
      99    H47     22.990601   19.120547   20.163586 H          1 MOL1         0.0783
     100    O24     24.976207   18.501413   19.957996 O.3        1 MOL1        -0.3740
     101    C30     24.002842   20.316132   18.691949 C.3        1 MOL1         0.0138
     102    H48     23.248114   21.113239   18.720373 H          1 MOL1         0.0794
     103    H49     23.717105   19.619675   17.892406 H          1 MOL1         0.0794
     104    O25     25.294859   20.870294   18.427101 O.3        1 MOL1        -0.5486
     105    H50     25.930456   20.123268   18.495926 H          1 MOL1         0.3769
     106    C31     21.410451   13.808853   21.732713 C.3        1 MOL1         0.2972
     107    H51     20.960625   12.812307   21.827410 H          1 MOL1         0.0751
     108    O26     20.423809   14.814563   21.416839 O.3        1 MOL1        -0.3740
     109    C32     22.125362   14.194401   23.050012 C.3        1 MOL1         0.1003
     110    H52     22.930205   13.465740   23.213125 H          1 MOL1         0.0783
     111    O27     21.224052   14.159179   24.164644 O.3        1 MOL1        -0.5519
     112    H53     21.728022   14.569668   24.903070 H          1 MOL1         0.3769
     113    C33     22.766396   15.594314   22.934895 C.3        1 MOL1         0.1053
     114    H54     21.955623   16.326525   22.868882 H          1 MOL1         0.0783
     115    O28     23.556881   15.853250   24.100810 O.3        1 MOL1        -0.5519
     116    H55     24.102214   16.654878   23.909487 H          1 MOL1         0.3769
     117    C34     23.639271   15.734258   21.662255 C.3        1 MOL1         0.1018
     118    H56     24.612383   15.262978   21.854193 H          1 MOL1         0.0783
     119    C35     22.987065   15.116136   20.391266 C.3        1 MOL1         0.1043
     120    H57     22.198758   15.797807   20.045741 H          1 MOL1         0.0783
     121    O29     22.407215   13.820426   20.689251 O.3        1 MOL1        -0.3740
     122    C36     23.982828   14.931415   19.224757 C.3        1 MOL1         0.0138
     123    H58     24.350229   15.916379   18.907394 H          1 MOL1         0.0794
     124    H59     23.449977   14.491364   18.371178 H          1 MOL1         0.0794
     125    O30     25.079250   14.097036   19.609601 O.3        1 MOL1        -0.5486
     126    H60     24.687077   13.244518   19.903084 H          1 MOL1         0.3769
     127    N1      18.415838   19.200817   25.048120 N.4        1 MOL1        -0.5891
     128    H1      17.583803   18.662757   24.743658 H          1 MOL1         0.3726
     129    H2      18.035931   20.045901   25.487162 H          1 MOL1         0.3726
     130    H3      18.897491   18.654314   25.766184 H          1 MOL1         0.3726
     131    C1      19.300162   19.539214   23.866887 C.3        1 MOL1         0.0314
     132    H4      20.142160   20.139497   24.223327 H          1 MOL1         0.0999
     133    H5      18.704482   20.153077   23.186117 H          1 MOL1         0.0999
     134    C2      19.823559   18.294355   23.126337 C.3        1 MOL1        -0.1308
     135    H6      20.521752   17.763042   23.785108 H          1 MOL1         0.1025
     136    H7      18.997098   17.603029   22.927977 H          1 MOL1         0.1025
     137    C3      20.521830   18.638641   21.791169 C.3        1 MOL1        -0.1243
     138    H8      20.939695   17.721286   21.355052 H          1 MOL1         0.1025
     139    H9      21.371605   19.305140   21.985714 H          1 MOL1         0.1025
     140    C4      19.568981   19.287027   20.760319 C.3        1 MOL1        -0.2258
     141    H10     20.097763   19.490439   19.820366 H          1 MOL1         0.1036
     142    H11     19.164965   20.238741   21.124601 H          1 MOL1         0.1036
     143    H12     18.722691   18.626316   20.532002 H          1 MOL1         0.1036
@<TRIPOS>BOND
    1     1     2    1
    2     1     3    1
    3     1     4    1
    4     4     5    1
    5     4     6    1
    6     6     7    1
    7     4     8    1
    8     8     9    1
    9     8    10    1
   10    10    11    1
   11     8    12    1
   12    12    13    1
   13    12    14    1
   14    14    15    1
   15     1    16    1
   16    14    16    1
   17    14    17    1
   18    17    18    1
   19    17    19    1
   20    17    20    1
   21    20    21    1
   22    22    23    1
   23    22    24    1
   24    22    25    1
   25    25    26    1
   26    25    27    1
   27    27    28    1
   28    25    29    1
   29    29    30    1
   30    29    31    1
   31    31    32    1
   32     3    33    1
   33    29    33    1
   34    33    34    1
   35    33    35    1
   36    35    36    1
   37    22    37    1
   38    35    37    1
   39    35    38    1
   40    38    39    1
   41    38    40    1
   42    38    41    1
   43    41    42    1
   44    43    44    1
   45    43    45    1
   46    43    46    1
   47    46    47    1
   48    46    48    1
   49    48    49    1
   50    46    50    1
   51    50    51    1
   52    50    52    1
   53    52    53    1
   54    24    54    1
   55    50    54    1
   56    54    55    1
   57    54    56    1
   58    56    57    1
   59    43    58    1
   60    56    58    1
   61    56    59    1
   62    59    60    1
   63    59    61    1
   64    59    62    1
   65    62    63    1
   66    64    65    1
   67    64    66    1
   68    64    67    1
   69    67    68    1
   70    67    69    1
   71    69    70    1
   72    67    71    1
   73    71    72    1
   74    71    73    1
   75    73    74    1
   76    45    75    1
   77    71    75    1
   78    75    76    1
   79    75    77    1
   80    77    78    1
   81    64    79    1
   82    77    79    1
   83    77    80    1
   84    80    81    1
   85    80    82    1
   86    80    83    1
   87    83    84    1
   88    85    86    1
   89    85    87    1
   90    85    88    1
   91    88    89    1
   92    88    90    1
   93    90    91    1
   94    88    92    1
   95    92    93    1
   96    92    94    1
   97    94    95    1
   98    66    96    1
   99    92    96    1
  100    96    97    1
  101    96    98    1
  102    98    99    1
  103    85   100    1
  104    98   100    1
  105    98   101    1
  106   101   102    1
  107   101   103    1
  108   101   104    1
  109   104   105    1
  110   106   107    1
  111    12   108    1
  112   106   108    1
  113   106   109    1
  114   109   110    1
  115   109   111    1
  116   111   112    1
  117   109   113    1
  118   113   114    1
  119   113   115    1
  120   115   116    1
  121    87   117    1
  122   113   117    1
  123   117   118    1
  124   117   119    1
  125   119   120    1
  126   106   121    1
  127   119   121    1
  128   119   122    1
  129   122   123    1
  130   122   124    1
  131   122   125    1
  132   125   126    1
  133   127   128    1
  134   127   129    1
  135   127   130    1
  136   127   131    1
  137   131   132    1
  138   131   133    1
  139   131   134    1
  140   134   135    1
  141   134   136    1
  142   134   137    1
  143   137   138    1
  144   137   139    1
  145   137   140    1
  146   140   141    1
  147   140   142    1
  148   140   143    1
@<TRIPOS>SUBSTRUCTURE
       1 MOL1            1 RESIDUE      1      MOL     
       2 MOL1          143 RESIDUE      1      MOL     
@<SCITEGIC>MOL_PROPERTY
VM2 Rank
SciTegic.value.IntegerValue
5

@<SCITEGIC>MOL_PROPERTY
Conf_Id
SciTegic.value.IntegerValue
19436

@<SCITEGIC>MOL_PROPERTY
Probability
SciTegic.value.DoubleValue
1.27

@<SCITEGIC>MOL_PROPERTY
Sum Probability
SciTegic.value.DoubleValue
6.70

@<SCITEGIC>MOL_PROPERTY
Delta G
SciTegic.value.DoubleValue
0.093

@<SCITEGIC>MOL_PROPERTY
G
SciTegic.value.DoubleValue
540.024

@<SCITEGIC>MOL_PROPERTY
E
SciTegic.value.DoubleValue
351.724

@<SCITEGIC>MOL_PROPERTY
-TS
SciTegic.value.DoubleValue
188.300

@<SCITEGIC>MOL_PROPERTY
U+W
SciTegic.value.DoubleValue
225.636

@<SCITEGIC>MOL_PROPERTY
U
SciTegic.value.DoubleValue
301.932

@<SCITEGIC>MOL_PROPERTY
W
SciTegic.value.DoubleValue
-76.297

@<SCITEGIC>MOL_PROPERTY
W(PB)
SciTegic.value.DoubleValue
-82.426

@<SCITEGIC>MOL_PROPERTY
W(SA)
SciTegic.value.DoubleValue
6.129

@<SCITEGIC>MOL_PROPERTY
Valence
SciTegic.value.DoubleValue
144.207

@<SCITEGIC>MOL_PROPERTY
Coulomb
SciTegic.value.DoubleValue
178.797

@<SCITEGIC>MOL_PROPERTY
VdW
SciTegic.value.DoubleValue
-21.072

@<SCITEGIC>MOL_PROPERTY
VdW6
SciTegic.value.DoubleValue
-169.992

@<SCITEGIC>MOL_PROPERTY
VdW12
SciTegic.value.DoubleValue
148.920

@<SCITEGIC>MOL_PROPERTY
Bond
SciTegic.value.DoubleValue
4.399

@<SCITEGIC>MOL_PROPERTY
Angle
SciTegic.value.DoubleValue
10.218

@<SCITEGIC>MOL_PROPERTY
Pdih
SciTegic.value.DoubleValue
129.589

@<SCITEGIC>MOL_PROPERTY
Idih
SciTegic.value.DoubleValue
0.000

@<SCITEGIC>MOL_PROPERTY
Tether
SciTegic.value.DoubleValue
0.000

@<TRIPOS>MOLECULE
CD_guest-1_vm2_rndm.mol2 : vm2 host+ligand conformer 6
         143         148           2
SMALL
USER_CHARGES
 
@<TRIPOS>ATOM
       1    C1      16.384443   15.291886   20.698356 C.3        1 MOL1         0.2972
       2    H1      15.339918   15.161707   20.388130 H          1 MOL1         0.0751
       3    O1      16.660671   16.663118   21.050177 O.3        1 MOL1        -0.3740
       4    C2      16.725076   14.358263   21.892540 C.3        1 MOL1         0.1003
       5    H2      16.539062   13.328756   21.559694 H          1 MOL1         0.0783
       6    O2      15.909286   14.633403   23.039037 O.3        1 MOL1        -0.5519
       7    H3      16.257157   14.039455   23.742107 H          1 MOL1         0.3769
       8    C3      18.217921   14.465237   22.283548 C.3        1 MOL1         0.1053
       9    H4      18.381513   15.460331   22.714766 H          1 MOL1         0.0783
      10    O3      18.526066   13.461149   23.257193 O.3        1 MOL1        -0.5519
      11    H5      19.420076   13.684194   23.618371 H          1 MOL1         0.3769
      12    C4      19.145274   14.315740   21.049456 C.3        1 MOL1         0.1018
      13    H6      19.174536   13.264283   20.733274 H          1 MOL1         0.0783
      14    C5      18.678191   15.178523   19.849825 C.3        1 MOL1         0.1043
      15    H7      18.861748   16.236120   20.079141 H          1 MOL1         0.0783
      16    O4      17.268043   14.942577   19.612120 O.3        1 MOL1        -0.3740
      17    C6      19.433748   14.823710   18.552544 C.3        1 MOL1         0.0138
      18    H8      19.179950   13.797825   18.253605 H          1 MOL1         0.0794
      19    H9      20.514820   14.858243   18.738923 H          1 MOL1         0.0794
      20    O5      19.088795   15.748720   17.519914 O.3        1 MOL1        -0.5486
      21    H10     18.106656   15.754194   17.475059 H          1 MOL1         0.3769
      22    C7      14.859570   20.297192   21.774374 C.3        1 MOL1         0.2972
      23    H11     14.199289   21.137969   22.023048 H          1 MOL1         0.0751
      24    O6      16.068516   20.743659   21.123719 O.3        1 MOL1        -0.3740
      25    C8      15.231460   19.503028   23.054901 C.3        1 MOL1         0.1003
      26    H12     14.297964   19.115299   23.482391 H          1 MOL1         0.0783
      27    O7      15.874691   20.350882   24.021533 O.3        1 MOL1        -0.5519
      28    H13     15.693187   21.285009   23.760119 H          1 MOL1         0.3769
      29    C9      16.134754   18.297101   22.697246 C.3        1 MOL1         0.1053
      30    H14     17.089877   18.703567   22.346249 H          1 MOL1         0.0783
      31    O8      16.349310   17.463776   23.846093 O.3        1 MOL1        -0.5519
      32    H15     16.300892   16.529363   23.529399 H          1 MOL1         0.3769
      33    C10     15.551796   17.440308   21.547003 C.3        1 MOL1         0.1018
      34    H16     14.752095   16.804914   21.950865 H          1 MOL1         0.0783
      35    C11     15.006700   18.298740   20.368888 C.3        1 MOL1         0.1043
      36    H17     15.862531   18.709822   19.817297 H          1 MOL1         0.0783
      37    O9      14.191304   19.382982   20.879519 O.3        1 MOL1        -0.3740
      38    C12     14.148506   17.502818   19.360217 C.3        1 MOL1         0.0138
      39    H18     14.784438   16.768461   18.848855 H          1 MOL1         0.0794
      40    H19     13.772742   18.194741   18.594476 H          1 MOL1         0.0794
      41    O10     13.058164   16.844201   20.010812 O.3        1 MOL1        -0.5486
      42    H20     12.536286   17.548134   20.456535 H          1 MOL1         0.3769
      43    C13     18.385241   24.074810   20.549245 C.3        1 MOL1         0.2972
      44    H21     18.852908   25.035718   20.298507 H          1 MOL1         0.0751
      45    O11     19.376088   23.071386   20.860809 O.3        1 MOL1        -0.3740
      46    C14     17.384793   24.228050   21.725091 C.3        1 MOL1         0.1003
      47    H22     16.585492   24.896142   21.378493 H          1 MOL1         0.0783
      48    O12     17.995557   24.806428   22.887876 O.3        1 MOL1        -0.5519
      49    H23     18.657784   24.148457   23.218742 H          1 MOL1         0.3769
      50    C15     16.743587   22.865257   22.077016 C.3        1 MOL1         0.1053
      51    H24     17.528457   22.222191   22.498532 H          1 MOL1         0.0783
      52    O13     15.716470   23.080663   23.051359 O.3        1 MOL1        -0.5519
      53    H25     16.088090   23.750629   23.669330 H          1 MOL1         0.3769
      54    C16     16.160710   22.151595   20.824949 C.3        1 MOL1         0.1018
      55    H26     15.176381   22.575494   20.585696 H          1 MOL1         0.0783
      56    C17     17.071961   22.257613   19.568332 C.3        1 MOL1         0.1043
      57    H27     17.894124   21.539211   19.674870 H          1 MOL1         0.0783
      58    O14     17.616424   23.594196   19.428249 O.3        1 MOL1        -0.3740
      59    C18     16.324688   21.913215   18.261055 C.3        1 MOL1         0.0138
      60    H28     15.919377   20.895320   18.337822 H          1 MOL1         0.0794
      61    H29     17.043556   21.920850   17.430896 H          1 MOL1         0.0794
      62    O15     15.269624   22.846547   18.010887 O.3        1 MOL1        -0.5486
      63    H30     15.683956   23.738096   18.033198 H          1 MOL1         0.3769
      64    C19     23.286779   22.517119   22.115454 C.3        1 MOL1         0.2972
      65    H31     24.303702   22.634162   22.510644 H          1 MOL1         0.0751
      66    O16     23.117717   21.247028   21.452631 O.3        1 MOL1        -0.3740
      67    C20     22.248267   22.627746   23.262136 C.3        1 MOL1         0.1003
      68    H32     22.384112   23.612843   23.727278 H          1 MOL1         0.0783
      69    O17     22.438340   21.604190   24.253172 O.3        1 MOL1        -0.5519
      70    H33     23.378852   21.310812   24.187914 H          1 MOL1         0.3769
      71    C21     20.807396   22.545093   22.712648 C.3        1 MOL1         0.1053
      72    H34     20.656372   21.526031   22.340324 H          1 MOL1         0.0783
      73    O18     19.892246   22.814215   23.779095 O.3        1 MOL1        -0.5519
      74    H35     20.271059   22.341745   24.554046 H          1 MOL1         0.3769
      75    C22     20.571274   23.519201   21.532046 C.3        1 MOL1         0.1018
      76    H36     20.466598   24.538048   21.927596 H          1 MOL1         0.0783
      77    C23     21.723983   23.474464   20.490745 C.3        1 MOL1         0.1043
      78    H37     21.661090   22.523472   19.945482 H          1 MOL1         0.0783
      79    O19     23.003654   23.564828   21.163626 O.3        1 MOL1        -0.3740
      80    C24     21.655606   24.614653   19.450409 C.3        1 MOL1         0.0138
      81    H38     20.745118   24.495085   18.848322 H          1 MOL1         0.0794
      82    H39     22.511971   24.522527   18.768899 H          1 MOL1         0.0794
      83    O20     21.661462   25.896717   20.085056 O.3        1 MOL1        -0.5486
      84    H40     22.483733   25.934159   20.622742 H          1 MOL1         0.3769
      85    C25     25.109000   17.616549   21.163696 C.3        1 MOL1         0.2972
      86    H41     25.814686   16.797161   20.975448 H          1 MOL1         0.0751
      87    O21     23.786483   17.125482   21.459342 O.3        1 MOL1        -0.3740
      88    C26     25.580662   18.500609   22.347821 C.3        1 MOL1         0.1003
      89    H42     26.547808   18.938549   22.067224 H          1 MOL1         0.0783
      90    O22     25.737329   17.733105   23.553474 O.3        1 MOL1        -0.5519
      91    H43     26.533812   17.170675   23.444197 H          1 MOL1         0.3769
      92    C27     24.584134   19.661132   22.586838 C.3        1 MOL1         0.1053
      93    H44     23.634516   19.225950   22.926269 H          1 MOL1         0.0783
      94    O23     25.112781   20.512701   23.609469 O.3        1 MOL1        -0.5519
      95    H45     25.474950   19.893686   24.284059 H          1 MOL1         0.3769
      96    C28     24.312638   20.457243   21.277660 C.3        1 MOL1         0.1018
      97    H46     25.177614   21.093398   21.047389 H          1 MOL1         0.0783
      98    C29     24.036488   19.525696   20.064601 C.3        1 MOL1         0.1043
      99    H47     23.036297   19.089034   20.179965 H          1 MOL1         0.0783
     100    O24     25.023675   18.466906   20.002307 O.3        1 MOL1        -0.3740
     101    C30     24.067808   20.275252   18.714080 C.3        1 MOL1         0.0138
     102    H48     23.313636   21.073245   18.728697 H          1 MOL1         0.0794
     103    H49     23.791239   19.574506   17.915062 H          1 MOL1         0.0794
     104    O25     25.363525   20.826687   18.461980 O.3        1 MOL1        -0.5486
     105    H50     25.997497   20.079485   18.542891 H          1 MOL1         0.3769
     106    C31     21.427877   13.792237   21.762461 C.3        1 MOL1         0.2972
     107    H51     20.974003   12.797562   21.857545 H          1 MOL1         0.0751
     108    O26     20.447982   14.799070   21.429423 O.3        1 MOL1        -0.3740
     109    C32     22.129192   14.183153   23.085520 C.3        1 MOL1         0.1003
     110    H52     22.930465   13.453512   23.261336 H          1 MOL1         0.0783
     111    O27     21.215912   14.156189   24.190558 O.3        1 MOL1        -0.5519
     112    H53     21.712869   14.569811   24.931997 H          1 MOL1         0.3769
     113    C33     22.774800   15.580866   22.969859 C.3        1 MOL1         0.1053
     114    H54     21.966549   16.314550   22.890518 H          1 MOL1         0.0783
     115    O28     23.552575   15.844566   24.143232 O.3        1 MOL1        -0.5519
     116    H55     24.101378   16.644307   23.953932 H          1 MOL1         0.3769
     117    C34     23.662319   15.711639   21.706425 C.3        1 MOL1         0.1018
     118    H56     24.632379   15.239892   21.912169 H          1 MOL1         0.0783
     119    C35     23.023533   15.087292   20.431645 C.3        1 MOL1         0.1043
     120    H57     22.241221   15.768897   20.072649 H          1 MOL1         0.0783
     121    O29     22.436611   13.794954   20.730503 O.3        1 MOL1        -0.3740
     122    C36     24.032584   14.892905   19.278205 C.3        1 MOL1         0.0138
     123    H58     24.406569   15.874957   18.959504 H          1 MOL1         0.0794
     124    H59     23.508682   14.449312   18.420929 H          1 MOL1         0.0794
     125    O30     25.121940   14.057741   19.680998 O.3        1 MOL1        -0.5486
     126    H60     24.723846   13.208107   19.974883 H          1 MOL1         0.3769
     127    N1      18.415636   19.209556   25.023716 N.4        1 MOL1        -0.5891
     128    H1      17.584935   18.671831   24.715090 H          1 MOL1         0.3726
     129    H2      18.034076   20.058039   25.454682 H          1 MOL1         0.3726
     130    H3      18.889913   18.665959   25.748850 H          1 MOL1         0.3726
     131    C1      19.310493   19.539161   23.848004 C.3        1 MOL1         0.0314
     132    H4      20.150978   20.139429   24.208029 H          1 MOL1         0.0999
     133    H5      18.721894   20.150630   23.158961 H          1 MOL1         0.0999
     134    C2      19.837010   18.288996   23.118751 C.3        1 MOL1        -0.1308
     135    H6      20.529428   17.760554   23.785872 H          1 MOL1         0.1025
     136    H7      19.010874   17.597808   22.918568 H          1 MOL1         0.1025
     137    C3      20.545741   18.624121   21.786773 C.3        1 MOL1        -0.1243
     138    H8      20.966436   17.703593   21.360105 H          1 MOL1         0.1025
     139    H9      21.394570   19.291102   21.983648 H          1 MOL1         0.1025
     140    C4      19.601465   19.266326   20.744097 C.3        1 MOL1        -0.2258
     141    H10     18.757286   18.603807   20.513431 H          1 MOL1         0.1036
     142    H11     20.138731   19.463182   19.807647 H          1 MOL1         0.1036
     143    H12     19.194184   20.220389   21.098880 H          1 MOL1         0.1036
@<TRIPOS>BOND
    1     1     2    1
    2     1     3    1
    3     1     4    1
    4     4     5    1
    5     4     6    1
    6     6     7    1
    7     4     8    1
    8     8     9    1
    9     8    10    1
   10    10    11    1
   11     8    12    1
   12    12    13    1
   13    12    14    1
   14    14    15    1
   15     1    16    1
   16    14    16    1
   17    14    17    1
   18    17    18    1
   19    17    19    1
   20    17    20    1
   21    20    21    1
   22    22    23    1
   23    22    24    1
   24    22    25    1
   25    25    26    1
   26    25    27    1
   27    27    28    1
   28    25    29    1
   29    29    30    1
   30    29    31    1
   31    31    32    1
   32     3    33    1
   33    29    33    1
   34    33    34    1
   35    33    35    1
   36    35    36    1
   37    22    37    1
   38    35    37    1
   39    35    38    1
   40    38    39    1
   41    38    40    1
   42    38    41    1
   43    41    42    1
   44    43    44    1
   45    43    45    1
   46    43    46    1
   47    46    47    1
   48    46    48    1
   49    48    49    1
   50    46    50    1
   51    50    51    1
   52    50    52    1
   53    52    53    1
   54    24    54    1
   55    50    54    1
   56    54    55    1
   57    54    56    1
   58    56    57    1
   59    43    58    1
   60    56    58    1
   61    56    59    1
   62    59    60    1
   63    59    61    1
   64    59    62    1
   65    62    63    1
   66    64    65    1
   67    64    66    1
   68    64    67    1
   69    67    68    1
   70    67    69    1
   71    69    70    1
   72    67    71    1
   73    71    72    1
   74    71    73    1
   75    73    74    1
   76    45    75    1
   77    71    75    1
   78    75    76    1
   79    75    77    1
   80    77    78    1
   81    64    79    1
   82    77    79    1
   83    77    80    1
   84    80    81    1
   85    80    82    1
   86    80    83    1
   87    83    84    1
   88    85    86    1
   89    85    87    1
   90    85    88    1
   91    88    89    1
   92    88    90    1
   93    90    91    1
   94    88    92    1
   95    92    93    1
   96    92    94    1
   97    94    95    1
   98    66    96    1
   99    92    96    1
  100    96    97    1
  101    96    98    1
  102    98    99    1
  103    85   100    1
  104    98   100    1
  105    98   101    1
  106   101   102    1
  107   101   103    1
  108   101   104    1
  109   104   105    1
  110   106   107    1
  111    12   108    1
  112   106   108    1
  113   106   109    1
  114   109   110    1
  115   109   111    1
  116   111   112    1
  117   109   113    1
  118   113   114    1
  119   113   115    1
  120   115   116    1
  121    87   117    1
  122   113   117    1
  123   117   118    1
  124   117   119    1
  125   119   120    1
  126   106   121    1
  127   119   121    1
  128   119   122    1
  129   122   123    1
  130   122   124    1
  131   122   125    1
  132   125   126    1
  133   127   128    1
  134   127   129    1
  135   127   130    1
  136   127   131    1
  137   131   132    1
  138   131   133    1
  139   131   134    1
  140   134   135    1
  141   134   136    1
  142   134   137    1
  143   137   138    1
  144   137   139    1
  145   137   140    1
  146   140   141    1
  147   140   142    1
  148   140   143    1
@<TRIPOS>SUBSTRUCTURE
       1 MOL1            1 RESIDUE      1      MOL     
       2 MOL1          143 RESIDUE      1      MOL     
@<SCITEGIC>MOL_PROPERTY
VM2 Rank
SciTegic.value.IntegerValue
6

@<SCITEGIC>MOL_PROPERTY
Conf_Id
SciTegic.value.IntegerValue
17166

@<SCITEGIC>MOL_PROPERTY
Probability
SciTegic.value.DoubleValue
1.13

@<SCITEGIC>MOL_PROPERTY
Sum Probability
SciTegic.value.DoubleValue
7.83

@<SCITEGIC>MOL_PROPERTY
Delta G
SciTegic.value.DoubleValue
0.164

@<SCITEGIC>MOL_PROPERTY
G
SciTegic.value.DoubleValue
540.095

@<SCITEGIC>MOL_PROPERTY
E
SciTegic.value.DoubleValue
351.558

@<SCITEGIC>MOL_PROPERTY
-TS
SciTegic.value.DoubleValue
188.537

@<SCITEGIC>MOL_PROPERTY
U+W
SciTegic.value.DoubleValue
225.470

@<SCITEGIC>MOL_PROPERTY
U
SciTegic.value.DoubleValue
302.222

@<SCITEGIC>MOL_PROPERTY
W
SciTegic.value.DoubleValue
-76.739

@<SCITEGIC>MOL_PROPERTY
W(PB)
SciTegic.value.DoubleValue
-82.873

@<SCITEGIC>MOL_PROPERTY
W(SA)
SciTegic.value.DoubleValue
6.134

@<SCITEGIC>MOL_PROPERTY
Valence
SciTegic.value.DoubleValue
144.083

@<SCITEGIC>MOL_PROPERTY
Coulomb
SciTegic.value.DoubleValue
178.976

@<SCITEGIC>MOL_PROPERTY
VdW
SciTegic.value.DoubleValue
-20.836

@<SCITEGIC>MOL_PROPERTY
VdW6
SciTegic.value.DoubleValue
-170.465

@<SCITEGIC>MOL_PROPERTY
VdW12
SciTegic.value.DoubleValue
149.628

@<SCITEGIC>MOL_PROPERTY
Bond
SciTegic.value.DoubleValue
4.435

@<SCITEGIC>MOL_PROPERTY
Angle
SciTegic.value.DoubleValue
10.307

@<SCITEGIC>MOL_PROPERTY
Pdih
SciTegic.value.DoubleValue
129.341

@<SCITEGIC>MOL_PROPERTY
Idih
SciTegic.value.DoubleValue
0.000

@<SCITEGIC>MOL_PROPERTY
Tether
SciTegic.value.DoubleValue
0.000

@<TRIPOS>MOLECULE
CD_guest-1_vm2_rndm.mol2 : vm2 host+ligand conformer 7
         143         148           2
SMALL
USER_CHARGES
 
@<TRIPOS>ATOM
       1    C1      16.338337   15.335513   20.682476 C.3        1 MOL1         0.2972
       2    H1      15.287020   15.214523   20.391965 H          1 MOL1         0.0751
       3    O1      16.629548   16.702274   21.040875 O.3        1 MOL1        -0.3740
       4    C2      16.695777   14.389793   21.861570 C.3        1 MOL1         0.1003
       5    H2      16.507076   13.363425   21.520576 H          1 MOL1         0.0783
       6    O2      15.894487   14.651978   23.021207 O.3        1 MOL1        -0.5519
       7    H3      16.255457   14.054043   23.714351 H          1 MOL1         0.3769
       8    C3      18.193357   14.495526   22.233445 C.3        1 MOL1         0.1053
       9    H4      18.363414   15.490022   22.663614 H          1 MOL1         0.0783
      10    O3      18.511332   13.489937   23.202464 O.3        1 MOL1        -0.5519
      11    H5      19.412473   13.707555   23.548744 H          1 MOL1         0.3769
      12    C4      19.104951   14.346456   20.987576 C.3        1 MOL1         0.1018
      13    H6      19.137499   13.292455   20.680838 H          1 MOL1         0.0783
      14    C5      18.614792   15.199176   19.787151 C.3        1 MOL1         0.1043
      15    H7      18.807401   16.256978   20.008208 H          1 MOL1         0.0783
      16    O4      17.196121   14.988433   19.575678 O.3        1 MOL1        -0.3740
      17    C6      19.340405   14.850256   18.468466 C.3        1 MOL1         0.0138
      18    H8      20.418514   15.012162   18.596996 H          1 MOL1         0.0794
      19    H9      18.994934   15.536120   17.683489 H          1 MOL1         0.0794
      20    O5      19.089658   13.494575   18.086746 O.3        1 MOL1        -0.5486
      21    H10     18.111732   13.394053   18.067557 H          1 MOL1         0.3769
      22    C7      14.842798   20.331940   21.842078 C.3        1 MOL1         0.2972
      23    H11     14.185151   21.168514   22.111003 H          1 MOL1         0.0751
      24    O6      16.045505   20.788550   21.187858 O.3        1 MOL1        -0.3740
      25    C8      15.226813   19.516308   23.105334 C.3        1 MOL1         0.1003
      26    H12     14.297404   19.121121   23.534903 H          1 MOL1         0.0783
      27    O7      15.878117   20.348937   24.079686 O.3        1 MOL1        -0.5519
      28    H13     15.687740   21.286788   23.839075 H          1 MOL1         0.3769
      29    C9      16.127234   18.316737   22.719367 C.3        1 MOL1         0.1053
      30    H14     17.079048   18.728315   22.365483 H          1 MOL1         0.0783
      31    O8      16.352756   17.465869   23.853101 O.3        1 MOL1        -0.5519
      32    H15     16.295601   16.536209   23.524143 H          1 MOL1         0.3769
      33    C10     15.530892   17.479086   21.561715 C.3        1 MOL1         0.1018
      34    H16     14.731537   16.842231   21.964055 H          1 MOL1         0.0783
      35    C11     14.977867   18.357140   20.401831 C.3        1 MOL1         0.1043
      36    H17     15.830133   18.775641   19.850085 H          1 MOL1         0.0783
      37    O9      14.167389   19.434352   20.935823 O.3        1 MOL1        -0.3740
      38    C12     14.111042   17.577680   19.387654 C.3        1 MOL1         0.0138
      39    H18     14.741705   16.848622   18.862227 H          1 MOL1         0.0794
      40    H19     13.732366   18.280930   18.633818 H          1 MOL1         0.0794
      41    O10     13.023055   16.913200   20.036263 O.3        1 MOL1        -0.5486
      42    H20     12.506529   17.612153   20.495843 H          1 MOL1         0.3769
      43    C13     18.347649   24.140347   20.653842 C.3        1 MOL1         0.2972
      44    H21     18.806019   25.108037   20.412243 H          1 MOL1         0.0751
      45    O11     19.347664   23.139440   20.943183 O.3        1 MOL1        -0.3740
      46    C14     17.356203   24.268878   21.840016 C.3        1 MOL1         0.1003
      47    H22     16.551535   24.939285   21.510779 H          1 MOL1         0.0783
      48    O12     17.972344   24.830430   23.008068 O.3        1 MOL1        -0.5519
      49    H23     18.640626   24.170679   23.322808 H          1 MOL1         0.3769
      50    C15     16.723389   22.897132   22.172694 C.3        1 MOL1         0.1053
      51    H24     17.512280   22.251824   22.583251 H          1 MOL1         0.0783
      52    O13     15.696093   23.093121   23.150750 O.3        1 MOL1        -0.5519
      53    H25     16.066131   23.753123   23.780332 H          1 MOL1         0.3769
      54    C16     16.141608   22.199874   20.910567 C.3        1 MOL1         0.1018
      55    H26     15.159709   22.629826   20.671515 H          1 MOL1         0.0783
      56    C17     17.053517   22.319506   19.657786 C.3        1 MOL1         0.1043
      57    H27     17.881305   21.605912   19.752125 H          1 MOL1         0.0783
      58    O14     17.570531   23.668284   19.534198 O.3        1 MOL1        -0.3740
      59    C18     16.287962   21.988454   18.360287 C.3        1 MOL1         0.0138
      60    H28     15.505209   22.741662   18.198354 H          1 MOL1         0.0794
      61    H29     15.795800   21.012651   18.469966 H          1 MOL1         0.0794
      62    O15     17.192057   21.957059   17.254331 O.3        1 MOL1        -0.5486
      63    H30     17.690514   22.804362   17.285687 H          1 MOL1         0.3769
      64    C19     23.265258   22.567456   22.155282 C.3        1 MOL1         0.2972
      65    H31     24.286047   22.674680   22.543232 H          1 MOL1         0.0751
      66    O16     23.086984   21.310877   21.469510 O.3        1 MOL1        -0.3740
      67    C20     22.237481   22.657656   23.313230 C.3        1 MOL1         0.1003
      68    H32     22.378411   23.633843   23.795332 H          1 MOL1         0.0783
      69    O17     22.435777   21.615588   24.283179 O.3        1 MOL1        -0.5519
      70    H33     23.374602   21.320794   24.201870 H          1 MOL1         0.3769
      71    C21     20.791647   22.586180   22.775239 C.3        1 MOL1         0.1053
      72    H34     20.636177   21.573969   22.386357 H          1 MOL1         0.0783
      73    O18     19.886153   22.836319   23.854450 O.3        1 MOL1        -0.5519
      74    H35     20.271403   22.349592   24.617301 H          1 MOL1         0.3769
      75    C22     20.545081   23.580970   21.613901 C.3        1 MOL1         0.1018
      76    H36     20.438992   24.592361   22.027735 H          1 MOL1         0.0783
      77    C23     21.689913   23.558077   20.563129 C.3        1 MOL1         0.1043
      78    H37     21.622490   22.618595   19.998760 H          1 MOL1         0.0783
      79    O19     22.975154   23.634288   21.227132 O.3        1 MOL1        -0.3740
      80    C24     21.613148   24.719192   19.546857 C.3        1 MOL1         0.0138
      81    H38     20.697848   24.611697   18.949861 H          1 MOL1         0.0794
      82    H39     22.463970   24.641071   18.856710 H          1 MOL1         0.0794
      83    O20     21.624133   25.988077   20.207367 O.3        1 MOL1        -0.5486
      84    H40     22.450519   26.014563   20.739361 H          1 MOL1         0.3769
      85    C25     25.066360   17.682285   21.086696 C.3        1 MOL1         0.2972
      86    H41     25.768978   16.866219   20.874045 H          1 MOL1         0.0751
      87    O21     23.746297   17.185959   21.385543 O.3        1 MOL1        -0.3740
      88    C26     25.552226   18.541688   22.283332 C.3        1 MOL1         0.1003
      89    H42     26.517067   18.983654   22.001106 H          1 MOL1         0.0783
      90    O22     25.720738   17.750198   23.471660 O.3        1 MOL1        -0.5519
      91    H43     26.514833   17.188618   23.342469 H          1 MOL1         0.3769
      92    C27     24.560611   19.698886   22.556282 C.3        1 MOL1         0.1053
      93    H44     23.613587   19.258547   22.896221 H          1 MOL1         0.0783
      94    O23     25.101023   20.528490   23.590734 O.3        1 MOL1        -0.5519
      95    H45     25.468948   19.895251   24.248804 H          1 MOL1         0.3769
      96    C28     24.277980   20.522073   21.266451 C.3        1 MOL1         0.1018
      97    H46     25.142208   21.160643   21.040083 H          1 MOL1         0.0783
      98    C29     23.986551   19.615775   20.038012 C.3        1 MOL1         0.1043
      99    H47     22.986566   19.179263   20.155542 H          1 MOL1         0.0783
     100    O24     24.970152   18.556063   19.943679 O.3        1 MOL1        -0.3740
     101    C30     24.005419   20.392363   18.702590 C.3        1 MOL1         0.0138
     102    H48     23.253478   21.191658   18.741249 H          1 MOL1         0.0794
     103    H49     23.718676   19.708559   17.892578 H          1 MOL1         0.0794
     104    O25     25.299795   20.945730   18.447865 O.3        1 MOL1        -0.5486
     105    H50     25.932668   20.195544   18.506788 H          1 MOL1         0.3769
     106    C31     21.401089   13.837276   21.662818 C.3        1 MOL1         0.2972
     107    H51     20.955708   12.837878   21.747780 H          1 MOL1         0.0751
     108    O26     20.410491   14.840671   21.348121 O.3        1 MOL1        -0.3740
     109    C32     22.109495   14.216095   22.986114 C.3        1 MOL1         0.1003
     110    H52     22.916117   13.488817   23.146621 H          1 MOL1         0.0783
     111    O27     21.206676   14.170873   24.098944 O.3        1 MOL1        -0.5519
     112    H53     21.708306   14.578966   24.840360 H          1 MOL1         0.3769
     113    C33     22.747263   15.618359   22.883512 C.3        1 MOL1         0.1053
     114    H54     21.934574   16.348034   22.817349 H          1 MOL1         0.0783
     115    O28     23.529888   15.871858   24.055939 O.3        1 MOL1        -0.5519
     116    H55     24.080916   16.670905   23.870286 H          1 MOL1         0.3769
     117    C34     23.626875   15.768749   21.616757 C.3        1 MOL1         0.1018
     118    H56     24.599426   15.297228   21.810925 H          1 MOL1         0.0783
     119    C35     22.981932   15.157134   20.339057 C.3        1 MOL1         0.1043
     120    H57     22.192172   15.837449   19.994675 H          1 MOL1         0.0783
     121    O29     22.405829   13.858368   20.627175 O.3        1 MOL1        -0.3740
     122    C36     23.982953   14.982205   19.175518 C.3        1 MOL1         0.0138
     123    H58     24.346416   15.970313   18.863451 H          1 MOL1         0.0794
     124    H59     23.455271   14.542509   18.318488 H          1 MOL1         0.0794
     125    O30     25.082379   14.151983   19.560838 O.3        1 MOL1        -0.5486
     126    H60     24.693389   13.295464   19.846886 H          1 MOL1         0.3769
     127    N1      18.418994   19.192371   25.058295 N.4        1 MOL1        -0.5891
     128    H1      17.589845   18.655229   24.744571 H          1 MOL1         0.3726
     129    H2      18.034648   20.029271   25.508934 H          1 MOL1         0.3726
     130    H3      18.902679   18.637628   25.768611 H          1 MOL1         0.3726
     131    C1      19.301885   19.552088   23.882487 C.3        1 MOL1         0.0314
     132    H4      20.140176   20.152586   24.247197 H          1 MOL1         0.0999
     133    H5      18.702489   20.171411   23.210016 H          1 MOL1         0.0999
     134    C2      19.832684   18.320142   23.125821 C.3        1 MOL1        -0.1308
     135    H6      20.537985   17.788010   23.776342 H          1 MOL1         0.1025
     136    H7      19.011469   17.623630   22.923200 H          1 MOL1         0.1025
     137    C3      20.523094   18.685501   21.792098 C.3        1 MOL1        -0.1243
     138    H8      20.946831   17.776997   21.343620 H          1 MOL1         0.1025
     139    H9      21.368187   19.356265   21.991797 H          1 MOL1         0.1025
     140    C4      19.561569   19.338583   20.772450 C.3        1 MOL1        -0.2258
     141    H10     20.086973   19.564225   19.835751 H          1 MOL1         0.1036
     142    H11     19.146798   20.279515   21.152552 H          1 MOL1         0.1036
     143    H12     18.722830   18.671436   20.535282 H          1 MOL1         0.1036
@<TRIPOS>BOND
    1     1     2    1
    2     1     3    1
    3     1     4    1
    4     4     5    1
    5     4     6    1
    6     6     7    1
    7     4     8    1
    8     8     9    1
    9     8    10    1
   10    10    11    1
   11     8    12    1
   12    12    13    1
   13    12    14    1
   14    14    15    1
   15     1    16    1
   16    14    16    1
   17    14    17    1
   18    17    18    1
   19    17    19    1
   20    17    20    1
   21    20    21    1
   22    22    23    1
   23    22    24    1
   24    22    25    1
   25    25    26    1
   26    25    27    1
   27    27    28    1
   28    25    29    1
   29    29    30    1
   30    29    31    1
   31    31    32    1
   32     3    33    1
   33    29    33    1
   34    33    34    1
   35    33    35    1
   36    35    36    1
   37    22    37    1
   38    35    37    1
   39    35    38    1
   40    38    39    1
   41    38    40    1
   42    38    41    1
   43    41    42    1
   44    43    44    1
   45    43    45    1
   46    43    46    1
   47    46    47    1
   48    46    48    1
   49    48    49    1
   50    46    50    1
   51    50    51    1
   52    50    52    1
   53    52    53    1
   54    24    54    1
   55    50    54    1
   56    54    55    1
   57    54    56    1
   58    56    57    1
   59    43    58    1
   60    56    58    1
   61    56    59    1
   62    59    60    1
   63    59    61    1
   64    59    62    1
   65    62    63    1
   66    64    65    1
   67    64    66    1
   68    64    67    1
   69    67    68    1
   70    67    69    1
   71    69    70    1
   72    67    71    1
   73    71    72    1
   74    71    73    1
   75    73    74    1
   76    45    75    1
   77    71    75    1
   78    75    76    1
   79    75    77    1
   80    77    78    1
   81    64    79    1
   82    77    79    1
   83    77    80    1
   84    80    81    1
   85    80    82    1
   86    80    83    1
   87    83    84    1
   88    85    86    1
   89    85    87    1
   90    85    88    1
   91    88    89    1
   92    88    90    1
   93    90    91    1
   94    88    92    1
   95    92    93    1
   96    92    94    1
   97    94    95    1
   98    66    96    1
   99    92    96    1
  100    96    97    1
  101    96    98    1
  102    98    99    1
  103    85   100    1
  104    98   100    1
  105    98   101    1
  106   101   102    1
  107   101   103    1
  108   101   104    1
  109   104   105    1
  110   106   107    1
  111    12   108    1
  112   106   108    1
  113   106   109    1
  114   109   110    1
  115   109   111    1
  116   111   112    1
  117   109   113    1
  118   113   114    1
  119   113   115    1
  120   115   116    1
  121    87   117    1
  122   113   117    1
  123   117   118    1
  124   117   119    1
  125   119   120    1
  126   106   121    1
  127   119   121    1
  128   119   122    1
  129   122   123    1
  130   122   124    1
  131   122   125    1
  132   125   126    1
  133   127   128    1
  134   127   129    1
  135   127   130    1
  136   127   131    1
  137   131   132    1
  138   131   133    1
  139   131   134    1
  140   134   135    1
  141   134   136    1
  142   134   137    1
  143   137   138    1
  144   137   139    1
  145   137   140    1
  146   140   141    1
  147   140   142    1
  148   140   143    1
@<TRIPOS>SUBSTRUCTURE
       1 MOL1            1 RESIDUE      1      MOL     
       2 MOL1          143 RESIDUE      1      MOL     
@<SCITEGIC>MOL_PROPERTY
VM2 Rank
SciTegic.value.IntegerValue
7

@<SCITEGIC>MOL_PROPERTY
Conf_Id
SciTegic.value.IntegerValue
18985

@<SCITEGIC>MOL_PROPERTY
Probability
SciTegic.value.DoubleValue
0.87

@<SCITEGIC>MOL_PROPERTY
Sum Probability
SciTegic.value.DoubleValue
8.69

@<SCITEGIC>MOL_PROPERTY
Delta G
SciTegic.value.DoubleValue
0.323

@<SCITEGIC>MOL_PROPERTY
G
SciTegic.value.DoubleValue
540.254

@<SCITEGIC>MOL_PROPERTY
E
SciTegic.value.DoubleValue
351.744

@<SCITEGIC>MOL_PROPERTY
-TS
SciTegic.value.DoubleValue
188.511

@<SCITEGIC>MOL_PROPERTY
U+W
SciTegic.value.DoubleValue
225.655

@<SCITEGIC>MOL_PROPERTY
U
SciTegic.value.DoubleValue
302.721

@<SCITEGIC>MOL_PROPERTY
W
SciTegic.value.DoubleValue
-77.065

@<SCITEGIC>MOL_PROPERTY
W(PB)
SciTegic.value.DoubleValue
-83.223

@<SCITEGIC>MOL_PROPERTY
W(SA)
SciTegic.value.DoubleValue
6.158

@<SCITEGIC>MOL_PROPERTY
Valence
SciTegic.value.DoubleValue
144.111

@<SCITEGIC>MOL_PROPERTY
Coulomb
SciTegic.value.DoubleValue
179.256

@<SCITEGIC>MOL_PROPERTY
VdW
SciTegic.value.DoubleValue
-20.646

@<SCITEGIC>MOL_PROPERTY
VdW6
SciTegic.value.DoubleValue
-170.361

@<SCITEGIC>MOL_PROPERTY
VdW12
SciTegic.value.DoubleValue
149.714

@<SCITEGIC>MOL_PROPERTY
Bond
SciTegic.value.DoubleValue
4.442

@<SCITEGIC>MOL_PROPERTY
Angle
SciTegic.value.DoubleValue
10.266

@<SCITEGIC>MOL_PROPERTY
Pdih
SciTegic.value.DoubleValue
129.402

@<SCITEGIC>MOL_PROPERTY
Idih
SciTegic.value.DoubleValue
0.000

@<SCITEGIC>MOL_PROPERTY
Tether
SciTegic.value.DoubleValue
0.000

@<TRIPOS>MOLECULE
CD_guest-1_vm2_rndm.mol2 : vm2 host+ligand conformer 8
         143         148           2
SMALL
USER_CHARGES
 
@<TRIPOS>ATOM
       1    C1      16.386961   15.312962   20.701765 C.3        1 MOL1         0.2972
       2    H1      15.341218   15.181570   20.396153 H          1 MOL1         0.0751
       3    O1      16.661227   16.682735   21.060526 O.3        1 MOL1        -0.3740
       4    C2      16.736506   14.373745   21.888863 C.3        1 MOL1         0.1003
       5    H2      16.553497   13.345394   21.550816 H          1 MOL1         0.0783
       6    O2      15.924639   14.638721   23.040492 O.3        1 MOL1        -0.5519
       7    H3      16.278558   14.042684   23.738768 H          1 MOL1         0.3769
       8    C3      18.230614   14.485353   22.273396 C.3        1 MOL1         0.1053
       9    H4      18.392068   15.478517   22.709770 H          1 MOL1         0.0783
      10    O3      18.549521   13.476507   23.238693 O.3        1 MOL1        -0.5519
      11    H5      19.455609   13.685875   23.577417 H          1 MOL1         0.3769
      12    C4      19.152287   14.346893   21.034346 C.3        1 MOL1         0.1018
      13    H6      19.183453   13.296800   20.713862 H          1 MOL1         0.0783
      14    C5      18.676701   15.212226   19.839872 C.3        1 MOL1         0.1043
      15    H7      18.858232   16.269949   20.070572 H          1 MOL1         0.0783
      16    O4      17.265980   14.972150   19.609105 O.3        1 MOL1        -0.3740
      17    C6      19.426223   14.861590   18.537940 C.3        1 MOL1         0.0138
      18    H8      19.182864   13.831395   18.245259 H          1 MOL1         0.0794
      19    H9      20.508258   14.910598   18.715395 H          1 MOL1         0.0794
      20    O5      19.061143   15.777278   17.504149 O.3        1 MOL1        -0.5486
      21    H10     18.078428   15.777328   17.473927 H          1 MOL1         0.3769
      22    C7      14.851554   20.307243   21.813009 C.3        1 MOL1         0.2972
      23    H11     14.190116   21.145092   22.068309 H          1 MOL1         0.0751
      24    O6      16.058821   20.759390   21.164404 O.3        1 MOL1        -0.3740
      25    C8      15.227631   19.504962   23.087060 C.3        1 MOL1         0.1003
      26    H12     14.296158   19.110837   23.513114 H          1 MOL1         0.0783
      27    O7      15.869297   20.348760   24.058359 O.3        1 MOL1        -0.5519
      28    H13     15.679950   21.283746   23.805957 H          1 MOL1         0.3769
      29    C9      16.134967   18.305160   22.718890 C.3        1 MOL1         0.1053
      30    H14     17.088086   18.717195   22.368388 H          1 MOL1         0.0783
      31    O8      16.354964   17.464719   23.861452 O.3        1 MOL1        -0.5519
      32    H15     16.309545   16.532319   23.538399 H          1 MOL1         0.3769
      33    C10     15.551844   17.454672   21.564089 C.3        1 MOL1         0.1018
      34    H16     14.753952   16.815183   21.965088 H          1 MOL1         0.0783
      35    C11     15.003553   18.319636   20.392122 C.3        1 MOL1         0.1043
      36    H17     15.858230   18.735881   19.842313 H          1 MOL1         0.0783
      37    O9      14.185619   19.399056   20.910264 O.3        1 MOL1        -0.3740
      38    C12     14.146693   17.527767   19.379141 C.3        1 MOL1         0.0138
      39    H18     14.783863   16.797164   18.863932 H          1 MOL1         0.0794
      40    H19     13.769868   18.222942   18.616933 H          1 MOL1         0.0794
      41    O10     13.057426   16.864001   20.026290 O.3        1 MOL1        -0.5486
      42    H20     12.534884   17.564494   20.476617 H          1 MOL1         0.3769
      43    C13     18.361596   24.106503   20.615585 C.3        1 MOL1         0.2972
      44    H21     18.822351   25.071393   20.367359 H          1 MOL1         0.0751
      45    O11     19.358536   23.109563   20.928753 O.3        1 MOL1        -0.3740
      46    C14     17.356909   24.248840   21.788833 C.3        1 MOL1         0.1003
      47    H22     16.554534   24.913121   21.442053 H          1 MOL1         0.0783
      48    O12     17.959274   24.827108   22.955849 O.3        1 MOL1        -0.5519
      49    H23     18.625632   24.172999   23.286043 H          1 MOL1         0.3769
      50    C15     16.723584   22.879861   22.131826 C.3        1 MOL1         0.1053
      51    H24     17.509804   22.240771   22.557004 H          1 MOL1         0.0783
      52    O13     15.686836   23.084609   23.098060 O.3        1 MOL1        -0.5519
      53    H25     16.049437   23.752909   23.723190 H          1 MOL1         0.3769
      54    C16     16.155142   22.167388   20.872135 C.3        1 MOL1         0.1018
      55    H26     15.174845   22.592821   20.618870 H          1 MOL1         0.0783
      56    C17     17.078875   22.273630   19.626739 C.3        1 MOL1         0.1043
      57    H27     17.905817   21.560993   19.736379 H          1 MOL1         0.0783
      58    O14     17.596895   23.621060   19.493258 O.3        1 MOL1        -0.3740
      59    C18     16.324493   21.929423   18.326065 C.3        1 MOL1         0.0138
      60    H28     15.539056   22.677410   18.153332 H          1 MOL1         0.0794
      61    H29     15.836629   20.951842   18.439024 H          1 MOL1         0.0794
      62    O15     17.236301   21.895505   17.226643 O.3        1 MOL1        -0.5486
      63    H30     17.734112   22.743122   17.259393 H          1 MOL1         0.3769
      64    C19     23.268850   22.575046   22.197593 C.3        1 MOL1         0.2972
      65    H31     24.283790   22.697467   22.596366 H          1 MOL1         0.0751
      66    O16     23.106022   21.300997   21.542178 O.3        1 MOL1        -0.3740
      67    C20     22.225019   22.686886   23.339124 C.3        1 MOL1         0.1003
      68    H32     22.351619   23.675929   23.798498 H          1 MOL1         0.0783
      69    O17     22.419997   21.670891   24.336417 O.3        1 MOL1        -0.5519
      70    H33     23.359630   21.379771   24.266089 H          1 MOL1         0.3769
      71    C21     20.787561   22.589364   22.783814 C.3        1 MOL1         0.1053
      72    H34     20.647624   21.568771   22.410554 H          1 MOL1         0.0783
      73    O18     19.865571   22.849280   23.846522 O.3        1 MOL1        -0.5519
      74    H35     20.244252   22.377483   24.622013 H          1 MOL1         0.3769
      75    C22     20.550237   23.561918   21.602245 C.3        1 MOL1         0.1018
      76    H36     20.441548   24.581122   21.995846 H          1 MOL1         0.0783
      77    C23     21.705031   23.517152   20.563102 C.3        1 MOL1         0.1043
      78    H37     21.644767   22.563649   20.021702 H          1 MOL1         0.0783
      79    O19     22.984970   23.614076   21.236240 O.3        1 MOL1        -0.3740
      80    C24     21.633065   24.652891   19.518164 C.3        1 MOL1         0.0138
      81    H38     20.722366   24.528573   18.917349 H          1 MOL1         0.0794
      82    H39     22.488916   24.560499   18.836159 H          1 MOL1         0.0794
      83    O20     21.636081   25.937375   20.147847 O.3        1 MOL1        -0.5486
      84    H40     22.457946   25.978864   20.685825 H          1 MOL1         0.3769
      85    C25     25.114848   17.689135   21.199660 C.3        1 MOL1         0.2972
      86    H41     25.827352   16.878462   20.999835 H          1 MOL1         0.0751
      87    O21     23.793745   17.184315   21.481004 O.3        1 MOL1        -0.3740
      88    C26     25.579345   18.550737   22.401611 C.3        1 MOL1         0.1003
      89    H42     26.547032   18.990928   22.126798 H          1 MOL1         0.0783
      90    O22     25.741432   17.745026   23.580157 O.3        1 MOL1        -0.5519
      91    H43     26.449848   18.158522   24.117602 H          1 MOL1         0.3769
      92    C27     24.577106   19.705233   22.659801 C.3        1 MOL1         0.1053
      93    H44     23.628322   19.261295   22.990603 H          1 MOL1         0.0783
      94    O23     25.091578   20.559793   23.689647 O.3        1 MOL1        -0.5519
      95    H45     25.264991   19.979248   24.461394 H          1 MOL1         0.3769
      96    C28     24.301170   20.514925   21.358491 C.3        1 MOL1         0.1018
      97    H46     25.165346   21.153171   21.130439 H          1 MOL1         0.0783
      98    C29     24.022436   19.601509   20.134220 C.3        1 MOL1         0.1043
      99    H47     23.025049   19.155781   20.239239 H          1 MOL1         0.0783
     100    O24     25.029708   18.564172   20.056341 O.3        1 MOL1        -0.3740
     101    C30     24.060215   20.388424   18.807968 C.3        1 MOL1         0.0138
     102    H48     25.072647   20.783082   18.648510 H          1 MOL1         0.0794
     103    H49     23.374853   21.243758   18.874065 H          1 MOL1         0.0794
     104    O25     23.675686   19.538812   17.725621 O.3        1 MOL1        -0.5486
     105    H50     24.255528   18.747159   17.781977 H          1 MOL1         0.3769
     106    C31     21.451821   13.826141   21.686517 C.3        1 MOL1         0.2972
     107    H51     21.011500   12.822926   21.749916 H          1 MOL1         0.0751
     108    O26     20.453635   14.833064   21.415128 O.3        1 MOL1        -0.3740
     109    C32     22.173481   14.169992   23.011643 C.3        1 MOL1         0.1003
     110    H52     22.980864   13.438146   23.145269 H          1 MOL1         0.0783
     111    O27     21.278716   14.094249   24.129578 O.3        1 MOL1        -0.5519
     112    H53     21.786046   14.480730   24.878619 H          1 MOL1         0.3769
     113    C33     22.811502   15.574361   22.941925 C.3        1 MOL1         0.1053
     114    H54     21.999947   16.308914   22.910816 H          1 MOL1         0.0783
     115    O28     23.613336   15.789208   24.108881 O.3        1 MOL1        -0.5519
     116    H55     24.201666   16.561127   23.917208 H          1 MOL1         0.3769
     117    C34     23.673736   15.761152   21.668113 C.3        1 MOL1         0.1018
     118    H56     24.647751   15.281177   21.832838 H          1 MOL1         0.0783
     119    C35     23.008388   15.192479   20.381290 C.3        1 MOL1         0.1043
     120    H57     22.213216   15.883847   20.072615 H          1 MOL1         0.0783
     121    O29     22.438363   13.883055   20.634938 O.3        1 MOL1        -0.3740
     122    C36     23.990469   15.058698   19.196548 C.3        1 MOL1         0.0138
     123    H58     24.357401   16.056084   18.920595 H          1 MOL1         0.0794
     124    H59     23.446723   14.659405   18.329905 H          1 MOL1         0.0794
     125    O30     25.088266   14.204629   19.530697 O.3        1 MOL1        -0.5486
     126    H60     24.695828   13.343340   19.796917 H          1 MOL1         0.3769
     127    N1      18.418080   19.210021   25.043577 N.4        1 MOL1        -0.5891
     128    H1      17.588900   18.672439   24.730634 H          1 MOL1         0.3726
     129    H2      18.034009   20.055659   25.477937 H          1 MOL1         0.3726
     130    H3      18.891380   18.663594   25.767215 H          1 MOL1         0.3726
     131    C1      19.315510   19.546989   23.871876 C.3        1 MOL1         0.0314
     132    H4      20.154799   20.145510   24.237671 H          1 MOL1         0.0999
     133    H5      18.728441   20.162433   23.185007 H          1 MOL1         0.0999
     134    C2      19.843936   18.301515   23.135693 C.3        1 MOL1        -0.1308
     135    H6      20.530511   17.763907   23.801747 H          1 MOL1         0.1025
     136    H7      19.017087   17.615089   22.922501 H          1 MOL1         0.1025
     137    C3      20.563502   18.647284   21.812687 C.3        1 MOL1        -0.1243
     138    H8      20.987278   17.730123   21.381993 H          1 MOL1         0.1025
     139    H9      21.410536   19.312389   22.022165 H          1 MOL1         0.1025
     140    C4      19.629366   19.299675   20.767443 C.3        1 MOL1        -0.2258
     141    H10     18.783633   18.642870   20.526172 H          1 MOL1         0.1036
     142    H11     20.174326   19.499886   19.835664 H          1 MOL1         0.1036
     143    H12     19.224640   20.253677   21.124876 H          1 MOL1         0.1036
@<TRIPOS>BOND
    1     1     2    1
    2     1     3    1
    3     1     4    1
    4     4     5    1
    5     4     6    1
    6     6     7    1
    7     4     8    1
    8     8     9    1
    9     8    10    1
   10    10    11    1
   11     8    12    1
   12    12    13    1
   13    12    14    1
   14    14    15    1
   15     1    16    1
   16    14    16    1
   17    14    17    1
   18    17    18    1
   19    17    19    1
   20    17    20    1
   21    20    21    1
   22    22    23    1
   23    22    24    1
   24    22    25    1
   25    25    26    1
   26    25    27    1
   27    27    28    1
   28    25    29    1
   29    29    30    1
   30    29    31    1
   31    31    32    1
   32     3    33    1
   33    29    33    1
   34    33    34    1
   35    33    35    1
   36    35    36    1
   37    22    37    1
   38    35    37    1
   39    35    38    1
   40    38    39    1
   41    38    40    1
   42    38    41    1
   43    41    42    1
   44    43    44    1
   45    43    45    1
   46    43    46    1
   47    46    47    1
   48    46    48    1
   49    48    49    1
   50    46    50    1
   51    50    51    1
   52    50    52    1
   53    52    53    1
   54    24    54    1
   55    50    54    1
   56    54    55    1
   57    54    56    1
   58    56    57    1
   59    43    58    1
   60    56    58    1
   61    56    59    1
   62    59    60    1
   63    59    61    1
   64    59    62    1
   65    62    63    1
   66    64    65    1
   67    64    66    1
   68    64    67    1
   69    67    68    1
   70    67    69    1
   71    69    70    1
   72    67    71    1
   73    71    72    1
   74    71    73    1
   75    73    74    1
   76    45    75    1
   77    71    75    1
   78    75    76    1
   79    75    77    1
   80    77    78    1
   81    64    79    1
   82    77    79    1
   83    77    80    1
   84    80    81    1
   85    80    82    1
   86    80    83    1
   87    83    84    1
   88    85    86    1
   89    85    87    1
   90    85    88    1
   91    88    89    1
   92    88    90    1
   93    90    91    1
   94    88    92    1
   95    92    93    1
   96    92    94    1
   97    94    95    1
   98    66    96    1
   99    92    96    1
  100    96    97    1
  101    96    98    1
  102    98    99    1
  103    85   100    1
  104    98   100    1
  105    98   101    1
  106   101   102    1
  107   101   103    1
  108   101   104    1
  109   104   105    1
  110   106   107    1
  111    12   108    1
  112   106   108    1
  113   106   109    1
  114   109   110    1
  115   109   111    1
  116   111   112    1
  117   109   113    1
  118   113   114    1
  119   113   115    1
  120   115   116    1
  121    87   117    1
  122   113   117    1
  123   117   118    1
  124   117   119    1
  125   119   120    1
  126   106   121    1
  127   119   121    1
  128   119   122    1
  129   122   123    1
  130   122   124    1
  131   122   125    1
  132   125   126    1
  133   127   128    1
  134   127   129    1
  135   127   130    1
  136   127   131    1
  137   131   132    1
  138   131   133    1
  139   131   134    1
  140   134   135    1
  141   134   136    1
  142   134   137    1
  143   137   138    1
  144   137   139    1
  145   137   140    1
  146   140   141    1
  147   140   142    1
  148   140   143    1
@<TRIPOS>SUBSTRUCTURE
       1 MOL1            1 RESIDUE      1      MOL     
       2 MOL1          143 RESIDUE      1      MOL     
@<SCITEGIC>MOL_PROPERTY
VM2 Rank
SciTegic.value.IntegerValue
8

@<SCITEGIC>MOL_PROPERTY
Conf_Id
SciTegic.value.IntegerValue
11721

@<SCITEGIC>MOL_PROPERTY
Probability
SciTegic.value.DoubleValue
0.73

@<SCITEGIC>MOL_PROPERTY
Sum Probability
SciTegic.value.DoubleValue
9.42

@<SCITEGIC>MOL_PROPERTY
Delta G
SciTegic.value.DoubleValue
0.423

@<SCITEGIC>MOL_PROPERTY
G
SciTegic.value.DoubleValue
540.354

@<SCITEGIC>MOL_PROPERTY
E
SciTegic.value.DoubleValue
352.659

@<SCITEGIC>MOL_PROPERTY
-TS
SciTegic.value.DoubleValue
187.695

@<SCITEGIC>MOL_PROPERTY
U+W
SciTegic.value.DoubleValue
226.571

@<SCITEGIC>MOL_PROPERTY
U
SciTegic.value.DoubleValue
304.517

@<SCITEGIC>MOL_PROPERTY
W
SciTegic.value.DoubleValue
-77.946

@<SCITEGIC>MOL_PROPERTY
W(PB)
SciTegic.value.DoubleValue
-84.050

@<SCITEGIC>MOL_PROPERTY
W(SA)
SciTegic.value.DoubleValue
6.104

@<SCITEGIC>MOL_PROPERTY
Valence
SciTegic.value.DoubleValue
144.460

@<SCITEGIC>MOL_PROPERTY
Coulomb
SciTegic.value.DoubleValue
181.571

@<SCITEGIC>MOL_PROPERTY
VdW
SciTegic.value.DoubleValue
-21.515

@<SCITEGIC>MOL_PROPERTY
VdW6
SciTegic.value.DoubleValue
-169.361

@<SCITEGIC>MOL_PROPERTY
VdW12
SciTegic.value.DoubleValue
147.846

@<SCITEGIC>MOL_PROPERTY
Bond
SciTegic.value.DoubleValue
4.335

@<SCITEGIC>MOL_PROPERTY
Angle
SciTegic.value.DoubleValue
9.913

@<SCITEGIC>MOL_PROPERTY
Pdih
SciTegic.value.DoubleValue
130.213

@<SCITEGIC>MOL_PROPERTY
Idih
SciTegic.value.DoubleValue
0.000

@<SCITEGIC>MOL_PROPERTY
Tether
SciTegic.value.DoubleValue
0.000

