@<TRIPOS>MOLECULE
CD_guest-s17_vm2_rndm.mol2 : vm2 host+ligand conformer 1
         151         157           2
SMALL
USER_CHARGES
 
@<TRIPOS>ATOM
       1    C1      16.270686   15.104086   21.195911 C.3        1 MOL1         0.2972
       2    H1      15.206617   14.914078   21.006584 H          1 MOL1         0.0751
       3    O1      16.578678   16.510552   21.136231 O.3        1 MOL1        -0.3740
       4    C2      16.672467   14.545860   22.586056 C.3        1 MOL1         0.1003
       5    H2      16.480887   13.465068   22.570058 H          1 MOL1         0.0783
       6    O2      15.899416   15.139917   23.636768 O.3        1 MOL1        -0.5519
       7    H3      16.362675   14.876921   24.463828 H          1 MOL1         0.3769
       8    C3      18.180789   14.752229   22.854642 C.3        1 MOL1         0.1053
       9    H4      18.364921   15.829105   22.951466 H          1 MOL1         0.0783
      10    O3      18.550910   14.080557   24.065001 O.3        1 MOL1        -0.5519
      11    H5      19.529184   14.190022   24.165563 H          1 MOL1         0.3769
      12    C4      19.036782   14.217841   21.680773 C.3        1 MOL1         0.1018
      13    H6      19.020784   13.120098   21.702833 H          1 MOL1         0.0783
      14    C5      18.516753   14.702418   20.299998 C.3        1 MOL1         0.1043
      15    H7      18.722022   15.776802   20.199389 H          1 MOL1         0.0783
      16    O4      17.090594   14.441947   20.208930 O.3        1 MOL1        -0.3740
      17    C6      19.193416   13.964380   19.126143 C.3        1 MOL1         0.0138
      18    H8      18.988851   12.888462   19.207063 H          1 MOL1         0.0794
      19    H9      20.279808   14.103959   19.185670 H          1 MOL1         0.0794
      20    O5      18.708138   14.474423   17.883034 O.3        1 MOL1        -0.5486
      21    H10     17.727706   14.427530   17.935664 H          1 MOL1         0.3769
      22    C7      14.875711   20.256213   20.590141 C.3        1 MOL1         0.2972
      23    H11     14.257736   21.106687   20.274529 H          1 MOL1         0.0751
      24    O6      16.050439   20.689079   21.306177 O.3        1 MOL1        -0.3740
      25    C8      14.063950   19.309115   21.509853 C.3        1 MOL1         0.1003
      26    H12     13.181396   18.980278   20.945976 H          1 MOL1         0.0783
      27    O7      13.642501   19.985671   22.703389 O.3        1 MOL1        -0.5519
      28    H13     13.258075   19.279471   23.269180 H          1 MOL1         0.3769
      29    C9      14.884892   18.053175   21.889006 C.3        1 MOL1         0.1053
      30    H14     15.688863   18.376109   22.558862 H          1 MOL1         0.0783
      31    O8      14.037815   17.118585   22.566889 O.3        1 MOL1        -0.5519
      32    H15     14.636776   16.442048   22.971069 H          1 MOL1         0.3769
      33    C10     15.540150   17.384014   20.651796 C.3        1 MOL1         0.1018
      34    H16     14.778895   16.837515   20.079255 H          1 MOL1         0.0783
      35    C11     16.223482   18.412887   19.713355 C.3        1 MOL1         0.1043
      36    H17     17.131580   18.797013   20.196063 H          1 MOL1         0.0783
      37    O9      15.299304   19.493557   19.440429 O.3        1 MOL1        -0.3740
      38    C12     16.623074   17.787985   18.360672 C.3        1 MOL1         0.0138
      39    H18     15.724833   17.407106   17.856666 H          1 MOL1         0.0794
      40    H19     17.293882   16.936945   18.538271 H          1 MOL1         0.0794
      41    O10     17.276968   18.764568   17.548007 O.3        1 MOL1        -0.5486
      42    H20     16.675759   19.541104   17.524842 H          1 MOL1         0.3769
      43    C13     18.348048   24.074659   21.942978 C.3        1 MOL1         0.2972
      44    H21     18.721464   25.095313   22.093260 H          1 MOL1         0.0751
      45    O11     19.426527   23.119929   21.855455 O.3        1 MOL1        -0.3740
      46    C14     17.419864   23.681000   23.119228 C.3        1 MOL1         0.1003
      47    H22     16.594171   24.404016   23.140692 H          1 MOL1         0.0783
      48    O12     18.122885   23.729126   24.369014 O.3        1 MOL1        -0.5519
      49    H23     17.513860   23.304321   25.012921 H          1 MOL1         0.3769
      50    C15     16.813339   22.274927   22.908026 C.3        1 MOL1         0.1053
      51    H24     17.622492   21.545112   23.011844 H          1 MOL1         0.0783
      52    O13     15.805106   22.026925   23.895051 O.3        1 MOL1        -0.5519
      53    H25     15.294665   21.243295   23.580332 H          1 MOL1         0.3769
      54    C16     16.193904   22.110038   21.498982 C.3        1 MOL1         0.1018
      55    H26     15.222135   22.621596   21.489424 H          1 MOL1         0.0783
      56    C17     17.103633   22.671903   20.368340 C.3        1 MOL1         0.1043
      57    H27     17.958423   21.993975   20.242375 H          1 MOL1         0.0783
      58    O14     17.575117   23.994056   20.727879 O.3        1 MOL1        -0.3740
      59    C18     16.397578   22.799610   18.999546 C.3        1 MOL1         0.0138
      60    H28     16.148570   21.799421   18.624996 H          1 MOL1         0.0794
      61    H29     17.098789   23.247187   18.282530 H          1 MOL1         0.0794
      62    O15     15.215301   23.598783   19.099063 O.3        1 MOL1        -0.5486
      63    H30     15.501970   24.470200   19.452480 H          1 MOL1         0.3769
      64    C19     23.541988   22.787817   21.415575 C.3        1 MOL1         0.2972
      65    H31     24.613558   22.973052   21.268745 H          1 MOL1         0.0751
      66    O16     23.248457   21.377884   21.471008 O.3        1 MOL1        -0.3740
      67    C20     23.070532   23.454298   22.732200 C.3        1 MOL1         0.1003
      68    H32     23.257783   24.532189   22.642161 H          1 MOL1         0.0783
      69    O17     23.794929   22.941125   23.859114 O.3        1 MOL1        -0.5519
      70    H33     23.299360   23.271993   24.641528 H          1 MOL1         0.3769
      71    C21     21.553265   23.250552   22.939813 C.3        1 MOL1         0.1053
      72    H34     21.383268   22.180362   23.104578 H          1 MOL1         0.0783
      73    O18     21.111514   24.001653   24.077765 O.3        1 MOL1        -0.5519
      74    H35     20.140774   23.833433   24.169825 H          1 MOL1         0.3769
      75    C22     20.747116   23.674365   21.688742 C.3        1 MOL1         0.1018
      76    H36     20.733283   24.770613   21.628073 H          1 MOL1         0.0783
      77    C23     21.344989   23.100551   20.375390 C.3        1 MOL1         0.1043
      78    H37     21.152003   22.019684   20.350257 H          1 MOL1         0.0783
      79    O19     22.774341   23.351024   20.330989 O.3        1 MOL1        -0.3740
      80    C24     20.727689   23.724817   19.104385 C.3        1 MOL1         0.0138
      81    H38     19.648622   23.526433   19.091918 H          1 MOL1         0.0794
      82    H39     21.161934   23.233368   18.223530 H          1 MOL1         0.0794
      83    O20     20.970310   25.133810   19.055056 O.3        1 MOL1        -0.5486
      84    H40     21.942934   25.245625   19.145039 H          1 MOL1         0.3769
      85    C25     24.978413   17.633105   20.970498 C.3        1 MOL1         0.2972
      86    H41     25.624563   16.795540   20.677644 H          1 MOL1         0.0751
      87    O21     23.766038   17.173182   21.598561 O.3        1 MOL1        -0.3740
      88    C26     25.720716   18.569426   21.960922 C.3        1 MOL1         0.1003
      89    H42     26.638243   18.909850   21.463692 H          1 MOL1         0.0783
      90    O22     26.063826   17.874414   23.168870 O.3        1 MOL1        -0.5519
      91    H43     26.412769   18.570543   23.769068 H          1 MOL1         0.3769
      92    C27     24.873102   19.818765   22.305050 C.3        1 MOL1         0.1053
      93    H44     24.031701   19.490939   22.924783 H          1 MOL1         0.0783
      94    O23     25.666215   20.757134   23.041733 O.3        1 MOL1        -0.5519
      95    H45     25.047297   21.465746   23.349628 H          1 MOL1         0.3769
      96    C28     24.299154   20.496220   21.034670 C.3        1 MOL1         0.1018
      97    H46     25.101568   21.035929   20.514061 H          1 MOL1         0.0783
      98    C29     23.667373   19.481350   20.048991 C.3        1 MOL1         0.1043
      99    H47     22.735219   19.090917   20.479785 H          1 MOL1         0.0783
     100    O24     24.612889   18.410905   19.811381 O.3        1 MOL1        -0.3740
     101    C30     23.346959   20.124678   18.683705 C.3        1 MOL1         0.0138
     102    H48     24.278630   20.476912   18.221100 H          1 MOL1         0.0794
     103    H49     22.699989   20.997709   18.835488 H          1 MOL1         0.0794
     104    O25     22.694479   19.177007   17.837130 O.3        1 MOL1        -0.5486
     105    H50     23.273488   18.383726   17.822215 H          1 MOL1         0.3769
     106    C31     21.429310   13.781031   21.996621 C.3        1 MOL1         0.2972
     107    H51     21.042965   12.758988   22.094795 H          1 MOL1         0.0751
     108    O26     20.363388   14.746867   21.876950 O.3        1 MOL1        -0.3740
     109    C32     22.294969   14.134054   23.232331 C.3        1 MOL1         0.1003
     110    H52     23.116963   13.407783   23.276161 H          1 MOL1         0.0783
     111    O27     21.527233   14.054953   24.441413 O.3        1 MOL1        -0.5519
     112    H53     22.109112   14.444760   25.131762 H          1 MOL1         0.3769
     113    C33     22.912179   15.543658   23.095197 C.3        1 MOL1         0.1053
     114    H54     22.095993   16.269741   23.168505 H          1 MOL1         0.0783
     115    O28     23.860362   15.768644   24.145645 O.3        1 MOL1        -0.5519
     116    H55     24.382331   16.564153   23.882110 H          1 MOL1         0.3769
     117    C34     23.611227   15.746957   21.730416 C.3        1 MOL1         0.1018
     118    H56     24.581253   15.232893   21.759975 H          1 MOL1         0.0783
     119    C35     22.764109   15.223131   20.534095 C.3        1 MOL1         0.1043
     120    H57     21.920178   15.908821   20.378850 H          1 MOL1         0.0783
     121    O29     22.268063   13.892707   20.828489 O.3        1 MOL1        -0.3740
     122    C36     23.546670   15.131323   19.204820 C.3        1 MOL1         0.0138
     123    H58     23.826208   16.140040   18.877943 H          1 MOL1         0.0794
     124    H59     22.883674   14.714911   18.434535 H          1 MOL1         0.0794
     125    O30     24.713977   14.316576   19.346717 O.3        1 MOL1        -0.5486
     126    H60     24.400045   13.438634   19.658234 H          1 MOL1         0.3769
     127    C1      21.206194   19.088083   23.445854 C.3        1 MOL1        -0.1684
     128    H1      21.212421   19.848587   22.654000 H          1 MOL1         0.0833
     129    H2      22.150068   18.543340   23.340998 H          1 MOL1         0.0833
     130    C2      20.064963   18.076851   23.174558 C.3        1 MOL1        -0.1684
     131    H3      20.291334   17.586928   22.217628 H          1 MOL1         0.0833
     132    H4      20.068909   17.270891   23.919257 H          1 MOL1         0.0833
     133    C3      18.664160   18.717187   23.046126 C.3        1 MOL1        -0.1684
     134    H5      18.141167   18.224617   22.220372 H          1 MOL1         0.0833
     135    H6      18.759957   19.756792   22.721753 H          1 MOL1         0.0833
     136    C4      17.759874   18.600798   24.302680 C.3        1 MOL1        -0.1760
     137    H7      16.927029   19.309142   24.213956 H          1 MOL1         0.0833
     138    H8      17.307254   17.600804   24.295912 H          1 MOL1         0.0833
     139    C5      18.429239   18.790867   25.682329 C.3        1 MOL1         0.1219
     140    H9      19.271125   18.094235   25.775190 H          1 MOL1         0.0790
     141    C6      18.917904   20.225860   25.981498 C.3        1 MOL1        -0.1760
     142    H10     18.064739   20.915032   25.928359 H          1 MOL1         0.0833
     143    H11     19.268278   20.253985   27.021187 H          1 MOL1         0.0833
     144    C7      20.057680   20.771416   25.086851 C.3        1 MOL1        -0.1684
     145    H12     20.462197   21.663681   25.583254 H          1 MOL1         0.0833
     146    H13     19.651635   21.139711   24.139539 H          1 MOL1         0.0833
     147    C8      21.225508   19.783355   24.832134 C.3        1 MOL1        -0.1684
     148    H14     21.295536   19.039552   25.636097 H          1 MOL1         0.0833
     149    H15     22.161264   20.356622   24.888044 H          1 MOL1         0.0833
     150    O1      17.465551   18.455108   26.673114 O.3        1 MOL1        -0.5508
     151    H16     17.912636   18.538946   27.539184 H          1 MOL1         0.3780
@<TRIPOS>BOND
    1     1     2    1
    2     1     3    1
    3     1     4    1
    4     4     5    1
    5     4     6    1
    6     6     7    1
    7     4     8    1
    8     8     9    1
    9     8    10    1
   10    10    11    1
   11     8    12    1
   12    12    13    1
   13    12    14    1
   14    14    15    1
   15     1    16    1
   16    14    16    1
   17    14    17    1
   18    17    18    1
   19    17    19    1
   20    17    20    1
   21    20    21    1
   22    22    23    1
   23    22    24    1
   24    22    25    1
   25    25    26    1
   26    25    27    1
   27    27    28    1
   28    25    29    1
   29    29    30    1
   30    29    31    1
   31    31    32    1
   32     3    33    1
   33    29    33    1
   34    33    34    1
   35    33    35    1
   36    35    36    1
   37    22    37    1
   38    35    37    1
   39    35    38    1
   40    38    39    1
   41    38    40    1
   42    38    41    1
   43    41    42    1
   44    43    44    1
   45    43    45    1
   46    43    46    1
   47    46    47    1
   48    46    48    1
   49    48    49    1
   50    46    50    1
   51    50    51    1
   52    50    52    1
   53    52    53    1
   54    24    54    1
   55    50    54    1
   56    54    55    1
   57    54    56    1
   58    56    57    1
   59    43    58    1
   60    56    58    1
   61    56    59    1
   62    59    60    1
   63    59    61    1
   64    59    62    1
   65    62    63    1
   66    64    65    1
   67    64    66    1
   68    64    67    1
   69    67    68    1
   70    67    69    1
   71    69    70    1
   72    67    71    1
   73    71    72    1
   74    71    73    1
   75    73    74    1
   76    45    75    1
   77    71    75    1
   78    75    76    1
   79    75    77    1
   80    77    78    1
   81    64    79    1
   82    77    79    1
   83    77    80    1
   84    80    81    1
   85    80    82    1
   86    80    83    1
   87    83    84    1
   88    85    86    1
   89    85    87    1
   90    85    88    1
   91    88    89    1
   92    88    90    1
   93    90    91    1
   94    88    92    1
   95    92    93    1
   96    92    94    1
   97    94    95    1
   98    66    96    1
   99    92    96    1
  100    96    97    1
  101    96    98    1
  102    98    99    1
  103    85   100    1
  104    98   100    1
  105    98   101    1
  106   101   102    1
  107   101   103    1
  108   101   104    1
  109   104   105    1
  110   106   107    1
  111    12   108    1
  112   106   108    1
  113   106   109    1
  114   109   110    1
  115   109   111    1
  116   111   112    1
  117   109   113    1
  118   113   114    1
  119   113   115    1
  120   115   116    1
  121    87   117    1
  122   113   117    1
  123   117   118    1
  124   117   119    1
  125   119   120    1
  126   106   121    1
  127   119   121    1
  128   119   122    1
  129   122   123    1
  130   122   124    1
  131   122   125    1
  132   125   126    1
  133   127   128    1
  134   127   129    1
  135   127   130    1
  136   130   131    1
  137   130   132    1
  138   130   133    1
  139   133   134    1
  140   133   135    1
  141   133   136    1
  142   136   137    1
  143   136   138    1
  144   136   139    1
  145   139   140    1
  146   139   141    1
  147   141   142    1
  148   141   143    1
  149   141   144    1
  150   144   145    1
  151   144   146    1
  152   127   147    1
  153   144   147    1
  154   147   148    1
  155   147   149    1
  156   139   150    1
  157   150   151    1
@<TRIPOS>SUBSTRUCTURE
       1 MOL1            1 RESIDUE      1      MOL     
       2 MOL1          151 RESIDUE      1      MOL     
@<SCITEGIC>MOL_PROPERTY
VM2 Rank
SciTegic.value.IntegerValue
1

@<SCITEGIC>MOL_PROPERTY
Conf_Id
SciTegic.value.IntegerValue
27881

@<SCITEGIC>MOL_PROPERTY
Probability
SciTegic.value.DoubleValue
5.44

@<SCITEGIC>MOL_PROPERTY
Sum Probability
SciTegic.value.DoubleValue
5.44

@<SCITEGIC>MOL_PROPERTY
Delta G
SciTegic.value.DoubleValue
0.000

@<SCITEGIC>MOL_PROPERTY
G
SciTegic.value.DoubleValue
577.818

@<SCITEGIC>MOL_PROPERTY
E
SciTegic.value.DoubleValue
377.677

@<SCITEGIC>MOL_PROPERTY
-TS
SciTegic.value.DoubleValue
200.141

@<SCITEGIC>MOL_PROPERTY
U+W
SciTegic.value.DoubleValue
244.435

@<SCITEGIC>MOL_PROPERTY
U
SciTegic.value.DoubleValue
279.008

@<SCITEGIC>MOL_PROPERTY
W
SciTegic.value.DoubleValue
-34.573

@<SCITEGIC>MOL_PROPERTY
W(PB)
SciTegic.value.DoubleValue
-40.715

@<SCITEGIC>MOL_PROPERTY
W(SA)
SciTegic.value.DoubleValue
6.142

@<SCITEGIC>MOL_PROPERTY
Valence
SciTegic.value.DoubleValue
160.106

@<SCITEGIC>MOL_PROPERTY
Coulomb
SciTegic.value.DoubleValue
144.965

@<SCITEGIC>MOL_PROPERTY
VdW
SciTegic.value.DoubleValue
-26.063

@<SCITEGIC>MOL_PROPERTY
VdW6
SciTegic.value.DoubleValue
-177.389

@<SCITEGIC>MOL_PROPERTY
VdW12
SciTegic.value.DoubleValue
151.326

@<SCITEGIC>MOL_PROPERTY
Bond
SciTegic.value.DoubleValue
4.274

@<SCITEGIC>MOL_PROPERTY
Angle
SciTegic.value.DoubleValue
13.395

@<SCITEGIC>MOL_PROPERTY
Pdih
SciTegic.value.DoubleValue
142.437

@<SCITEGIC>MOL_PROPERTY
Idih
SciTegic.value.DoubleValue
0.000

@<SCITEGIC>MOL_PROPERTY
Tether
SciTegic.value.DoubleValue
0.000

@<TRIPOS>MOLECULE
CD_guest-s17_vm2_rndm.mol2 : vm2 host+ligand conformer 2
         151         157           2
SMALL
USER_CHARGES
 
@<TRIPOS>ATOM
       1    C1      16.222414   15.119709   21.223787 C.3        1 MOL1         0.2972
       2    H1      15.148379   14.951495   21.074098 H          1 MOL1         0.0751
       3    O1      16.563584   16.515349   21.108947 O.3        1 MOL1        -0.3740
       4    C2      16.654651   14.596438   22.617764 C.3        1 MOL1         0.1003
       5    H2      16.454105   13.517335   22.638162 H          1 MOL1         0.0783
       6    O2      15.913864   15.227992   23.669742 O.3        1 MOL1        -0.5519
       7    H3      16.401626   14.992966   24.491217 H          1 MOL1         0.3769
       8    C3      18.171119   14.798189   22.837799 C.3        1 MOL1         0.1053
       9    H4      18.367417   15.875649   22.885659 H          1 MOL1         0.0783
      10    O3      18.569844   14.172590   24.063733 O.3        1 MOL1        -0.5519
      11    H5      19.557237   14.221118   24.100601 H          1 MOL1         0.3769
      12    C4      18.990970   14.208984   21.665143 C.3        1 MOL1         0.1018
      13    H6      18.982754   13.114574   21.752860 H          1 MOL1         0.0783
      14    C5      18.428240   14.620477   20.275229 C.3        1 MOL1         0.1043
      15    H7      18.650587   15.683623   20.112970 H          1 MOL1         0.0783
      16    O4      16.992605   14.404485   20.234277 O.3        1 MOL1        -0.3740
      17    C6      19.046609   13.822665   19.105831 C.3        1 MOL1         0.0138
      18    H8      20.125328   14.019139   19.064444 H          1 MOL1         0.0794
      19    H9      18.612791   14.184633   18.164153 H          1 MOL1         0.0794
      20    O5      18.804890   12.420441   19.255577 O.3        1 MOL1        -0.5486
      21    H10     17.830428   12.318535   19.336628 H          1 MOL1         0.3769
      22    C7      14.916679   20.278978   20.521732 C.3        1 MOL1         0.2972
      23    H11     14.310181   21.133573   20.195159 H          1 MOL1         0.0751
      24    O6      16.104511   20.705985   21.219865 O.3        1 MOL1        -0.3740
      25    C8      14.097085   19.359443   21.462770 C.3        1 MOL1         0.1003
      26    H12     13.206493   19.033432   20.909990 H          1 MOL1         0.0783
      27    O7      13.692358   20.060336   22.647795 O.3        1 MOL1        -0.5519
      28    H13     13.296525   19.369010   23.224254 H          1 MOL1         0.3769
      29    C9      14.903414   18.099145   21.857375 C.3        1 MOL1         0.1053
      30    H14     15.720611   18.423265   22.510127 H          1 MOL1         0.0783
      31    O8      14.051372   17.190818   22.564284 O.3        1 MOL1        -0.5519
      32    H15     14.646304   16.520654   22.984662 H          1 MOL1         0.3769
      33    C10     15.532414   17.397611   20.624853 C.3        1 MOL1         0.1018
      34    H16     14.755653   16.854072   20.070522 H          1 MOL1         0.0783
      35    C11     16.222940   18.397058   19.660970 C.3        1 MOL1         0.1043
      36    H17     17.145371   18.769393   20.125867 H          1 MOL1         0.0783
      37    O9      15.319169   19.492668   19.380304 O.3        1 MOL1        -0.3740
      38    C12     16.587534   17.737131   18.314927 C.3        1 MOL1         0.0138
      39    H18     15.668642   17.406844   17.812269 H          1 MOL1         0.0794
      40    H19     17.203441   16.847677   18.502024 H          1 MOL1         0.0794
      41    O10     17.302823   18.662359   17.494337 O.3        1 MOL1        -0.5486
      42    H20     16.748443   19.472526   17.453439 H          1 MOL1         0.3769
      43    C13     18.357283   24.101757   21.958624 C.3        1 MOL1         0.2972
      44    H21     18.718237   25.123422   22.130846 H          1 MOL1         0.0751
      45    O11     19.445747   23.158508   21.874412 O.3        1 MOL1        -0.3740
      46    C14     17.415091   23.679265   23.113603 C.3        1 MOL1         0.1003
      47    H22     16.582047   24.393849   23.133805 H          1 MOL1         0.0783
      48    O12     18.097387   23.713412   24.375276 O.3        1 MOL1        -0.5519
      49    H23     17.481737   23.272116   25.001666 H          1 MOL1         0.3769
      50    C15     16.825331   22.270871   22.871085 C.3        1 MOL1         0.1053
      51    H24     17.638772   21.546111   22.977829 H          1 MOL1         0.0783
      52    O13     15.803273   22.003172   23.838550 O.3        1 MOL1        -0.5519
      53    H25     15.283117   21.238023   23.493415 H          1 MOL1         0.3769
      54    C16     16.231011   22.123426   21.449132 C.3        1 MOL1         0.1018
      55    H26     15.255585   22.627849   21.431490 H          1 MOL1         0.0783
      56    C17     17.153501   22.711277   20.343348 C.3        1 MOL1         0.1043
      57    H27     18.017629   22.044327   20.222580 H          1 MOL1         0.0783
      58    O14     17.604703   24.032829   20.729716 O.3        1 MOL1        -0.3740
      59    C18     16.467181   22.845734   18.965339 C.3        1 MOL1         0.0138
      60    H28     16.227342   21.846128   18.581970 H          1 MOL1         0.0794
      61    H29     17.176705   23.300871   18.261410 H          1 MOL1         0.0794
      62    O15     15.280041   23.639036   19.053564 O.3        1 MOL1        -0.5486
      63    H30     15.557248   24.507845   19.420758 H          1 MOL1         0.3769
      64    C19     23.563293   22.841199   21.506761 C.3        1 MOL1         0.2972
      65    H31     24.638752   23.022596   21.385753 H          1 MOL1         0.0751
      66    O16     23.258759   21.432530   21.520078 O.3        1 MOL1        -0.3740
      67    C20     23.069446   23.476317   22.830319 C.3        1 MOL1         0.1003
      68    H32     23.259571   24.555797   22.770316 H          1 MOL1         0.0783
      69    O17     23.772032   22.934119   23.957417 O.3        1 MOL1        -0.5519
      70    H33     23.261633   23.245496   24.738299 H          1 MOL1         0.3769
      71    C21     21.548549   23.269271   23.004075 C.3        1 MOL1         0.1053
      72    H34     21.375027   22.195206   23.138197 H          1 MOL1         0.0783
      73    O18     21.086388   23.991753   24.152352 O.3        1 MOL1        -0.5519
      74    H35     20.113754   23.823313   24.221460 H          1 MOL1         0.3769
      75    C22     20.765374   23.725543   21.749712 C.3        1 MOL1         0.1018
      76    H36     20.746078   24.823006   21.721205 H          1 MOL1         0.0783
      77    C23     21.389479   23.192661   20.431202 C.3        1 MOL1         0.1043
      78    H37     21.193761   22.113909   20.367688 H          1 MOL1         0.0783
      79    O19     22.820331   23.438357   20.423156 O.3        1 MOL1        -0.3740
      80    C24     20.799139   23.858816   19.168701 C.3        1 MOL1         0.0138
      81    H38     19.720056   23.663735   19.128404 H          1 MOL1         0.0794
      82    H39     21.250003   23.394634   18.281433 H          1 MOL1         0.0794
      83    O20     21.045538   25.268023   19.169414 O.3        1 MOL1        -0.5486
      84    H40     22.016514   25.374393   19.281329 H          1 MOL1         0.3769
      85    C25     24.981145   17.689919   20.973401 C.3        1 MOL1         0.2972
      86    H41     25.631712   16.858605   20.672907 H          1 MOL1         0.0751
      87    O21     23.760445   17.216655   21.577194 O.3        1 MOL1        -0.3740
      88    C26     25.711814   18.603755   21.992903 C.3        1 MOL1         0.1003
      89    H42     26.637778   18.950145   21.515839 H          1 MOL1         0.0783
      90    O22     26.035177   17.882870   23.191161 O.3        1 MOL1        -0.5519
      91    H43     26.373898   18.565879   23.811889 H          1 MOL1         0.3769
      92    C27     24.864567   19.850033   22.349085 C.3        1 MOL1         0.1053
      93    H44     24.012852   19.514284   22.949918 H          1 MOL1         0.0783
      94    O23     25.651102   20.770154   23.115222 O.3        1 MOL1        -0.5519
      95    H45     25.030112   21.473101   23.431787 H          1 MOL1         0.3769
      96    C28     24.311713   20.554102   21.083740 C.3        1 MOL1         0.1018
      97    H46     25.123529   21.099329   20.583859 H          1 MOL1         0.0783
      98    C29     23.688845   19.560231   20.071762 C.3        1 MOL1         0.1043
      99    H47     22.751075   19.163426   20.484089 H          1 MOL1         0.0783
     100    O24     24.635288   18.493326   19.825863 O.3        1 MOL1        -0.3740
     101    C30     23.386095   20.229852   18.715032 C.3        1 MOL1         0.0138
     102    H48     24.323165   20.594004   18.272994 H          1 MOL1         0.0794
     103    H49     22.734591   21.097960   18.875188 H          1 MOL1         0.0794
     104    O25     22.748590   19.297788   17.839960 O.3        1 MOL1        -0.5486
     105    H50     23.340493   18.515103   17.801586 H          1 MOL1         0.3769
     106    C31     21.401987   13.800906   21.799963 C.3        1 MOL1         0.2972
     107    H51     21.032836   12.768100   21.827630 H          1 MOL1         0.0751
     108    O26     20.319689   14.755094   21.793357 O.3        1 MOL1        -0.3740
     109    C32     22.300617   14.074677   23.033468 C.3        1 MOL1         0.1003
     110    H52     23.126144   13.351690   23.004805 H          1 MOL1         0.0783
     111    O27     21.568055   13.909608   24.255924 O.3        1 MOL1        -0.5519
     112    H53     22.170489   14.249439   24.955010 H          1 MOL1         0.3769
     113    C33     22.909515   15.494662   22.977444 C.3        1 MOL1         0.1053
     114    H54     22.094170   16.212311   23.119369 H          1 MOL1         0.0783
     115    O28     23.883730   15.651669   24.016537 O.3        1 MOL1        -0.5519
     116    H55     24.388485   16.472765   23.801731 H          1 MOL1         0.3769
     117    C34     23.575008   15.787774   21.612348 C.3        1 MOL1         0.1018
     118    H56     24.532899   15.252009   21.575788 H          1 MOL1         0.0783
     119    C35     22.682373   15.363697   20.410789 C.3        1 MOL1         0.1043
     120    H57     21.833098   16.056865   20.343587 H          1 MOL1         0.0783
     121    O29     22.200512   14.013347   20.617577 O.3        1 MOL1        -0.3740
     122    C36     23.414217   15.373880   19.049894 C.3        1 MOL1         0.0138
     123    H58     23.681073   16.404201   18.788539 H          1 MOL1         0.0794
     124    H59     22.722476   15.014342   18.276403 H          1 MOL1         0.0794
     125    O30     24.585551   14.553273   19.085501 O.3        1 MOL1        -0.5486
     126    H60     24.282412   13.654059   19.342188 H          1 MOL1         0.3769
     127    C1      21.226587   19.064242   23.468793 C.3        1 MOL1        -0.1684
     128    H1      21.255981   19.830214   22.682636 H          1 MOL1         0.0833
     129    H2      22.164581   18.506626   23.376644 H          1 MOL1         0.0833
     130    C2      20.077908   18.069036   23.170899 C.3        1 MOL1        -0.1684
     131    H3      20.312354   17.586985   22.212012 H          1 MOL1         0.0833
     132    H4      20.063766   17.255075   23.906715 H          1 MOL1         0.0833
     133    C3      18.685093   18.724905   23.029816 C.3        1 MOL1        -0.1684
     134    H5      18.165921   18.244581   22.193545 H          1 MOL1         0.0833
     135    H6      18.796480   19.765815   22.714721 H          1 MOL1         0.0833
     136    C4      17.764574   18.609258   24.275064 C.3        1 MOL1        -0.1760
     137    H7      16.942633   19.329866   24.184206 H          1 MOL1         0.0833
     138    H8      17.298356   17.616183   24.252930 H          1 MOL1         0.0833
     139    C5      18.418788   18.774942   25.665017 C.3        1 MOL1         0.1219
     140    H9      19.252539   18.068811   25.759371 H          1 MOL1         0.0790
     141    C6      18.917634   20.201162   25.987116 C.3        1 MOL1        -0.1760
     142    H10     18.071436   20.898928   25.934627 H          1 MOL1         0.0833
     143    H11     19.259061   20.213284   27.030084 H          1 MOL1         0.0833
     144    C7      20.069705   20.745689   25.108299 C.3        1 MOL1        -0.1684
     145    H12     20.475177   21.631440   25.615428 H          1 MOL1         0.0833
     146    H13     19.674935   21.123275   24.159857 H          1 MOL1         0.0833
     147    C8      21.233041   19.750683   24.859704 C.3        1 MOL1        -0.1684
     148    H14     21.287670   19.000922   25.659324 H          1 MOL1         0.0833
     149    H15     22.172225   20.316568   24.931145 H          1 MOL1         0.0833
     150    O1      17.439985   18.436838   26.640082 O.3        1 MOL1        -0.5508
     151    H16     17.877602   18.504886   27.512321 H          1 MOL1         0.3780
@<TRIPOS>BOND
    1     1     2    1
    2     1     3    1
    3     1     4    1
    4     4     5    1
    5     4     6    1
    6     6     7    1
    7     4     8    1
    8     8     9    1
    9     8    10    1
   10    10    11    1
   11     8    12    1
   12    12    13    1
   13    12    14    1
   14    14    15    1
   15     1    16    1
   16    14    16    1
   17    14    17    1
   18    17    18    1
   19    17    19    1
   20    17    20    1
   21    20    21    1
   22    22    23    1
   23    22    24    1
   24    22    25    1
   25    25    26    1
   26    25    27    1
   27    27    28    1
   28    25    29    1
   29    29    30    1
   30    29    31    1
   31    31    32    1
   32     3    33    1
   33    29    33    1
   34    33    34    1
   35    33    35    1
   36    35    36    1
   37    22    37    1
   38    35    37    1
   39    35    38    1
   40    38    39    1
   41    38    40    1
   42    38    41    1
   43    41    42    1
   44    43    44    1
   45    43    45    1
   46    43    46    1
   47    46    47    1
   48    46    48    1
   49    48    49    1
   50    46    50    1
   51    50    51    1
   52    50    52    1
   53    52    53    1
   54    24    54    1
   55    50    54    1
   56    54    55    1
   57    54    56    1
   58    56    57    1
   59    43    58    1
   60    56    58    1
   61    56    59    1
   62    59    60    1
   63    59    61    1
   64    59    62    1
   65    62    63    1
   66    64    65    1
   67    64    66    1
   68    64    67    1
   69    67    68    1
   70    67    69    1
   71    69    70    1
   72    67    71    1
   73    71    72    1
   74    71    73    1
   75    73    74    1
   76    45    75    1
   77    71    75    1
   78    75    76    1
   79    75    77    1
   80    77    78    1
   81    64    79    1
   82    77    79    1
   83    77    80    1
   84    80    81    1
   85    80    82    1
   86    80    83    1
   87    83    84    1
   88    85    86    1
   89    85    87    1
   90    85    88    1
   91    88    89    1
   92    88    90    1
   93    90    91    1
   94    88    92    1
   95    92    93    1
   96    92    94    1
   97    94    95    1
   98    66    96    1
   99    92    96    1
  100    96    97    1
  101    96    98    1
  102    98    99    1
  103    85   100    1
  104    98   100    1
  105    98   101    1
  106   101   102    1
  107   101   103    1
  108   101   104    1
  109   104   105    1
  110   106   107    1
  111    12   108    1
  112   106   108    1
  113   106   109    1
  114   109   110    1
  115   109   111    1
  116   111   112    1
  117   109   113    1
  118   113   114    1
  119   113   115    1
  120   115   116    1
  121    87   117    1
  122   113   117    1
  123   117   118    1
  124   117   119    1
  125   119   120    1
  126   106   121    1
  127   119   121    1
  128   119   122    1
  129   122   123    1
  130   122   124    1
  131   122   125    1
  132   125   126    1
  133   127   128    1
  134   127   129    1
  135   127   130    1
  136   130   131    1
  137   130   132    1
  138   130   133    1
  139   133   134    1
  140   133   135    1
  141   133   136    1
  142   136   137    1
  143   136   138    1
  144   136   139    1
  145   139   140    1
  146   139   141    1
  147   141   142    1
  148   141   143    1
  149   141   144    1
  150   144   145    1
  151   144   146    1
  152   127   147    1
  153   144   147    1
  154   147   148    1
  155   147   149    1
  156   139   150    1
  157   150   151    1
@<TRIPOS>SUBSTRUCTURE
       1 MOL1            1 RESIDUE      1      MOL     
       2 MOL1          151 RESIDUE      1      MOL     
@<SCITEGIC>MOL_PROPERTY
VM2 Rank
SciTegic.value.IntegerValue
2

@<SCITEGIC>MOL_PROPERTY
Conf_Id
SciTegic.value.IntegerValue
27232

@<SCITEGIC>MOL_PROPERTY
Probability
SciTegic.value.DoubleValue
5.02

@<SCITEGIC>MOL_PROPERTY
Sum Probability
SciTegic.value.DoubleValue
10.46

@<SCITEGIC>MOL_PROPERTY
Delta G
SciTegic.value.DoubleValue
0.047

@<SCITEGIC>MOL_PROPERTY
G
SciTegic.value.DoubleValue
577.865

@<SCITEGIC>MOL_PROPERTY
E
SciTegic.value.DoubleValue
377.453

@<SCITEGIC>MOL_PROPERTY
-TS
SciTegic.value.DoubleValue
200.412

@<SCITEGIC>MOL_PROPERTY
U+W
SciTegic.value.DoubleValue
244.211

@<SCITEGIC>MOL_PROPERTY
U
SciTegic.value.DoubleValue
277.559

@<SCITEGIC>MOL_PROPERTY
W
SciTegic.value.DoubleValue
-33.348

@<SCITEGIC>MOL_PROPERTY
W(PB)
SciTegic.value.DoubleValue
-39.547

@<SCITEGIC>MOL_PROPERTY
W(SA)
SciTegic.value.DoubleValue
6.199

@<SCITEGIC>MOL_PROPERTY
Valence
SciTegic.value.DoubleValue
159.810

@<SCITEGIC>MOL_PROPERTY
Coulomb
SciTegic.value.DoubleValue
143.394

@<SCITEGIC>MOL_PROPERTY
VdW
SciTegic.value.DoubleValue
-25.645

@<SCITEGIC>MOL_PROPERTY
VdW6
SciTegic.value.DoubleValue
-177.518

@<SCITEGIC>MOL_PROPERTY
VdW12
SciTegic.value.DoubleValue
151.873

@<SCITEGIC>MOL_PROPERTY
Bond
SciTegic.value.DoubleValue
4.284

@<SCITEGIC>MOL_PROPERTY
Angle
SciTegic.value.DoubleValue
13.417

@<SCITEGIC>MOL_PROPERTY
Pdih
SciTegic.value.DoubleValue
142.109

@<SCITEGIC>MOL_PROPERTY
Idih
SciTegic.value.DoubleValue
0.000

@<SCITEGIC>MOL_PROPERTY
Tether
SciTegic.value.DoubleValue
0.000

@<TRIPOS>MOLECULE
CD_guest-s17_vm2_rndm.mol2 : vm2 host+ligand conformer 3
         151         157           2
SMALL
USER_CHARGES
 
@<TRIPOS>ATOM
       1    C1      16.275906   15.218426   21.590744 C.3        1 MOL1         0.2972
       2    H1      15.188583   15.071099   21.610815 H          1 MOL1         0.0751
       3    O1      16.616905   16.593062   21.314058 O.3        1 MOL1        -0.3740
       4    C2      16.889617   14.791267   22.948814 C.3        1 MOL1         0.1003
       5    H2      16.651309   13.729439   23.093085 H          1 MOL1         0.0783
       6    O2      16.333269   15.545141   24.034025 O.3        1 MOL1        -0.5519
       7    H3      16.925001   15.356854   24.796536 H          1 MOL1         0.3769
       8    C3      18.429341   14.928768   22.935858 C.3        1 MOL1         0.1053
       9    H4      18.676129   15.994836   22.883003 H          1 MOL1         0.0783
      10    O3      18.976589   14.359416   24.131468 O.3        1 MOL1        -0.5519
      11    H5      19.943363   14.235853   23.968019 H          1 MOL1         0.3769
      12    C4      19.053362   14.228889   21.705299 C.3        1 MOL1         0.1018
      13    H6      19.037888   13.144891   21.880775 H          1 MOL1         0.0783
      14    C5      18.306373   14.564291   20.382677 C.3        1 MOL1         0.1043
      15    H7      18.530797   15.605522   20.116126 H          1 MOL1         0.0783
      16    O4      16.875915   14.401224   20.563230 O.3        1 MOL1        -0.3740
      17    C6      18.724406   13.671240   19.192996 C.3        1 MOL1         0.0138
      18    H8      19.778661   13.858606   18.952989 H          1 MOL1         0.0794
      19    H9      18.135373   13.959480   18.312078 H          1 MOL1         0.0794
      20    O5      18.524018   12.286422   19.491590 O.3        1 MOL1        -0.5486
      21    H10     17.572657   12.189497   19.719599 H          1 MOL1         0.3769
      22    C7      14.731735   20.267216   20.652243 C.3        1 MOL1         0.2972
      23    H11     14.054018   21.063913   20.320390 H          1 MOL1         0.0751
      24    O6      15.917845   20.799315   21.270343 O.3        1 MOL1        -0.3740
      25    C8      14.025741   19.343812   21.680367 C.3        1 MOL1         0.1003
      26    H12     13.141897   18.918811   21.187423 H          1 MOL1         0.0783
      27    O7      13.611438   20.079896   22.839882 O.3        1 MOL1        -0.5519
      28    H13     13.392021   19.390876   23.506042 H          1 MOL1         0.3769
      29    C9      14.943501   18.170374   22.105890 C.3        1 MOL1         0.1053
      30    H14     15.773257   18.589524   22.687142 H          1 MOL1         0.0783
      31    O8      14.202464   17.254803   22.921277 O.3        1 MOL1        -0.5519
      32    H15     14.876097   16.694689   23.382096 H          1 MOL1         0.3769
      33    C10     15.534355   17.437335   20.870347 C.3        1 MOL1         0.1018
      34    H16     14.745711   16.852278   20.378483 H          1 MOL1         0.0783
      35    C11     16.125101   18.426990   19.833328 C.3        1 MOL1         0.1043
      36    H17     17.037824   18.878220   20.245021 H          1 MOL1         0.0783
      37    O9      15.136850   19.445092   19.536092 O.3        1 MOL1        -0.3740
      38    C12     16.481976   17.726570   18.505701 C.3        1 MOL1         0.0138
      39    H18     15.571226   17.300873   18.063622 H          1 MOL1         0.0794
      40    H19     17.172880   16.897988   18.707376 H          1 MOL1         0.0794
      41    O10     17.087206   18.658141   17.607068 O.3        1 MOL1        -0.5486
      42    H20     16.451249   19.401516   17.520465 H          1 MOL1         0.3769
      43    C13     18.306648   24.170809   21.563409 C.3        1 MOL1         0.2972
      44    H21     18.704156   25.193259   21.576166 H          1 MOL1         0.0751
      45    O11     19.352575   23.188993   21.730432 O.3        1 MOL1        -0.3740
      46    C14     17.265239   23.997829   22.698292 C.3        1 MOL1         0.1003
      47    H22     16.468453   24.733585   22.528755 H          1 MOL1         0.0783
      48    O12     17.854804   24.226223   23.985766 O.3        1 MOL1        -0.5519
      49    H23     17.174930   23.916333   24.625450 H          1 MOL1         0.3769
      50    C15     16.628777   22.590931   22.659552 C.3        1 MOL1         0.1053
      51    H24     17.407296   21.870258   22.932845 H          1 MOL1         0.0783
      52    O13     15.551490   22.517513   23.600223 O.3        1 MOL1        -0.5519
      53    H25     15.192278   21.600343   23.528209 H          1 MOL1         0.3769
      54    C16     16.105446   22.226415   21.248117 C.3        1 MOL1         0.1018
      55    H26     15.162398   22.761473   21.075391 H          1 MOL1         0.0783
      56    C17     17.130787   22.566363   20.128892 C.3        1 MOL1         0.1043
      57    H27     17.960017   21.848469   20.187644 H          1 MOL1         0.0783
      58    O14     17.635315   23.912381   20.312733 O.3        1 MOL1        -0.3740
      59    C18     16.540545   22.495504   18.703080 C.3        1 MOL1         0.0138
      60    H28     16.246515   21.462685   18.483774 H          1 MOL1         0.0794
      61    H29     17.324298   22.768841   17.984019 H          1 MOL1         0.0794
      62    O15     15.416284   23.369298   18.565274 O.3        1 MOL1        -0.5486
      63    H30     15.736220   24.266573   18.808163 H          1 MOL1         0.3769
      64    C19     23.505354   22.760382   21.733548 C.3        1 MOL1         0.2972
      65    H31     24.582185   22.967511   21.699479 H          1 MOL1         0.0751
      66    O16     23.241146   21.341649   21.759680 O.3        1 MOL1        -0.3740
      67    C20     22.896668   23.422723   22.995899 C.3        1 MOL1         0.1003
      68    H32     23.121064   24.495823   22.940151 H          1 MOL1         0.0783
      69    O17     23.475534   22.883382   24.192565 O.3        1 MOL1        -0.5519
      70    H33     22.907863   23.227511   24.917951 H          1 MOL1         0.3769
      71    C21     21.359907   23.265465   23.036150 C.3        1 MOL1         0.1053
      72    H34     21.136357   22.206589   23.194023 H          1 MOL1         0.0783
      73    O18     20.826705   24.046994   24.112161 O.3        1 MOL1        -0.5519
      74    H35     19.841083   23.982879   24.053956 H          1 MOL1         0.3769
      75    C22     20.705070   23.691670   21.701343 C.3        1 MOL1         0.1018
      76    H36     20.740132   24.786433   21.625695 H          1 MOL1         0.0783
      77    C23     21.425070   23.069450   20.474800 C.3        1 MOL1         0.1043
      78    H37     21.229405   21.988664   20.465307 H          1 MOL1         0.0783
      79    O19     22.851536   23.314250   20.572120 O.3        1 MOL1        -0.3740
      80    C24     20.947483   23.654544   19.127196 C.3        1 MOL1         0.0138
      81    H38     19.877597   23.445065   19.001354 H          1 MOL1         0.0794
      82    H39     21.478889   23.144116   18.312886 H          1 MOL1         0.0794
      83    O20     21.185191   25.064062   19.066696 O.3        1 MOL1        -0.5486
      84    H40     22.142832   25.186850   19.251840 H          1 MOL1         0.3769
      85    C25     25.146589   17.665724   21.199227 C.3        1 MOL1         0.2972
      86    H41     25.870653   16.877181   20.959059 H          1 MOL1         0.0751
      87    O21     23.854031   17.122213   21.525763 O.3        1 MOL1        -0.3740
      88    C26     25.639668   18.494082   22.414509 C.3        1 MOL1         0.1003
      89    H42     26.616867   18.917233   22.148098 H          1 MOL1         0.0783
      90    O22     25.782885   17.667359   23.579034 O.3        1 MOL1        -0.5519
      91    H43     25.940937   18.300290   24.314843 H          1 MOL1         0.3769
      92    C27     24.678955   19.669113   22.720925 C.3        1 MOL1         0.1053
      93    H44     23.740255   19.246455   23.096589 H          1 MOL1         0.0783
      94    O23     25.258265   20.521093   23.716718 O.3        1 MOL1        -0.5519
      95    H45     24.604075   21.243817   23.888464 H          1 MOL1         0.3769
      96    C28     24.365349   20.492616   21.446797 C.3        1 MOL1         0.1018
      97    H46     25.256833   21.072969   21.174167 H          1 MOL1         0.0783
      98    C29     23.978242   19.596539   20.241612 C.3        1 MOL1         0.1043
      99    H47     22.992373   19.149162   20.423508 H          1 MOL1         0.0783
     100    O24     24.988388   18.568354   20.082866 O.3        1 MOL1        -0.3740
     101    C30     23.917998   20.392911   18.921071 C.3        1 MOL1         0.0138
     102    H48     24.901067   20.839423   18.720508 H          1 MOL1         0.0794
     103    H49     23.195017   21.211324   19.024388 H          1 MOL1         0.0794
     104    O25     23.528237   19.536641   17.845820 O.3        1 MOL1        -0.5486
     105    H50     24.174451   18.796399   17.841971 H          1 MOL1         0.3769
     106    C31     21.425416   13.776977   21.287946 C.3        1 MOL1         0.2972
     107    H51     21.007120   12.774687   21.129607 H          1 MOL1         0.0751
     108    O26     20.398098   14.737944   21.605149 O.3        1 MOL1        -0.3740
     109    C32     22.458778   13.757783   22.445012 C.3        1 MOL1         0.1003
     110    H52     23.242704   13.038713   22.174091 H          1 MOL1         0.0783
     111    O27     21.847651   13.354188   23.678811 O.3        1 MOL1        -0.5519
     112    H53     22.540865   13.501097   24.360728 H          1 MOL1         0.3769
     113    C33     23.122828   15.143526   22.625800 C.3        1 MOL1         0.1053
     114    H54     22.359505   15.827922   23.013254 H          1 MOL1         0.0783
     115    O28     24.203773   15.051877   23.562017 O.3        1 MOL1        -0.5519
     116    H55     24.630716   15.944211   23.586701 H          1 MOL1         0.3769
     117    C34     23.648514   15.717695   21.287286 C.3        1 MOL1         0.1018
     118    H56     24.579515   15.200370   21.020786 H          1 MOL1         0.0783
     119    C35     22.619646   15.577168   20.132168 C.3        1 MOL1         0.1043
     120    H57     21.797874   16.284565   20.307333 H          1 MOL1         0.0783
     121    O29     22.105463   14.223733   20.096506 O.3        1 MOL1        -0.3740
     122    C36     23.215799   15.878782   18.740052 C.3        1 MOL1         0.0138
     123    H58     23.549109   16.922441   18.712322 H          1 MOL1         0.0794
     124    H59     22.424905   15.768897   17.986176 H          1 MOL1         0.0794
     125    O30     24.307942   15.003163   18.444686 O.3        1 MOL1        -0.5486
     126    H60     23.958473   14.089441   18.541376 H          1 MOL1         0.3769
     127    C1      21.312224   18.299460   24.411550 C.3        1 MOL1        -0.1684
     128    H1      22.227683   17.706432   24.541592 H          1 MOL1         0.0833
     129    H2      20.566489   17.793873   25.034876 H          1 MOL1         0.0833
     130    C2      20.924433   18.217214   22.913604 C.3        1 MOL1        -0.1684
     131    H3      21.830150   18.361202   22.318875 H          1 MOL1         0.0833
     132    H4      20.577972   17.202658   22.688546 H          1 MOL1         0.0833
     133    C3      19.886699   19.232365   22.393326 C.3        1 MOL1        -0.1684
     134    H5      19.778100   19.067353   21.313019 H          1 MOL1         0.0833
     135    H6      20.271690   20.252946   22.481662 H          1 MOL1         0.0833
     136    C4      18.479966   19.120198   23.022944 C.3        1 MOL1        -0.1760
     137    H7      17.826689   19.780020   22.450591 H          1 MOL1         0.0833
     138    H8      18.092453   18.110189   22.862453 H          1 MOL1         0.0833
     139    C5      18.323032   19.463737   24.523586 C.3        1 MOL1         0.1219
     140    H9      18.621085   18.594635   25.121770 H          1 MOL1         0.0790
     141    C6      19.125273   20.701874   24.997660 C.3        1 MOL1        -0.1760
     142    H10     19.321931   21.376740   24.159622 H          1 MOL1         0.0833
     143    H11     18.498884   21.286578   25.683959 H          1 MOL1         0.0833
     144    C7      20.438715   20.371316   25.756913 C.3        1 MOL1        -0.1684
     145    H12     20.206136   19.726829   26.615254 H          1 MOL1         0.0833
     146    H13     20.819232   21.308696   26.184998 H          1 MOL1         0.0833
     147    C8      21.590234   19.730487   24.937238 C.3        1 MOL1        -0.1684
     148    H14     22.464744   19.676161   25.599694 H          1 MOL1         0.0833
     149    H15     21.898795   20.388558   24.118220 H          1 MOL1         0.0833
     150    O1      16.940359   19.705104   24.759955 O.3        1 MOL1        -0.5508
     151    H16     16.843036   19.871413   25.717544 H          1 MOL1         0.3780
@<TRIPOS>BOND
    1     1     2    1
    2     1     3    1
    3     1     4    1
    4     4     5    1
    5     4     6    1
    6     6     7    1
    7     4     8    1
    8     8     9    1
    9     8    10    1
   10    10    11    1
   11     8    12    1
   12    12    13    1
   13    12    14    1
   14    14    15    1
   15     1    16    1
   16    14    16    1
   17    14    17    1
   18    17    18    1
   19    17    19    1
   20    17    20    1
   21    20    21    1
   22    22    23    1
   23    22    24    1
   24    22    25    1
   25    25    26    1
   26    25    27    1
   27    27    28    1
   28    25    29    1
   29    29    30    1
   30    29    31    1
   31    31    32    1
   32     3    33    1
   33    29    33    1
   34    33    34    1
   35    33    35    1
   36    35    36    1
   37    22    37    1
   38    35    37    1
   39    35    38    1
   40    38    39    1
   41    38    40    1
   42    38    41    1
   43    41    42    1
   44    43    44    1
   45    43    45    1
   46    43    46    1
   47    46    47    1
   48    46    48    1
   49    48    49    1
   50    46    50    1
   51    50    51    1
   52    50    52    1
   53    52    53    1
   54    24    54    1
   55    50    54    1
   56    54    55    1
   57    54    56    1
   58    56    57    1
   59    43    58    1
   60    56    58    1
   61    56    59    1
   62    59    60    1
   63    59    61    1
   64    59    62    1
   65    62    63    1
   66    64    65    1
   67    64    66    1
   68    64    67    1
   69    67    68    1
   70    67    69    1
   71    69    70    1
   72    67    71    1
   73    71    72    1
   74    71    73    1
   75    73    74    1
   76    45    75    1
   77    71    75    1
   78    75    76    1
   79    75    77    1
   80    77    78    1
   81    64    79    1
   82    77    79    1
   83    77    80    1
   84    80    81    1
   85    80    82    1
   86    80    83    1
   87    83    84    1
   88    85    86    1
   89    85    87    1
   90    85    88    1
   91    88    89    1
   92    88    90    1
   93    90    91    1
   94    88    92    1
   95    92    93    1
   96    92    94    1
   97    94    95    1
   98    66    96    1
   99    92    96    1
  100    96    97    1
  101    96    98    1
  102    98    99    1
  103    85   100    1
  104    98   100    1
  105    98   101    1
  106   101   102    1
  107   101   103    1
  108   101   104    1
  109   104   105    1
  110   106   107    1
  111    12   108    1
  112   106   108    1
  113   106   109    1
  114   109   110    1
  115   109   111    1
  116   111   112    1
  117   109   113    1
  118   113   114    1
  119   113   115    1
  120   115   116    1
  121    87   117    1
  122   113   117    1
  123   117   118    1
  124   117   119    1
  125   119   120    1
  126   106   121    1
  127   119   121    1
  128   119   122    1
  129   122   123    1
  130   122   124    1
  131   122   125    1
  132   125   126    1
  133   127   128    1
  134   127   129    1
  135   127   130    1
  136   130   131    1
  137   130   132    1
  138   130   133    1
  139   133   134    1
  140   133   135    1
  141   133   136    1
  142   136   137    1
  143   136   138    1
  144   136   139    1
  145   139   140    1
  146   139   141    1
  147   141   142    1
  148   141   143    1
  149   141   144    1
  150   144   145    1
  151   144   146    1
  152   127   147    1
  153   144   147    1
  154   147   148    1
  155   147   149    1
  156   139   150    1
  157   150   151    1
@<TRIPOS>SUBSTRUCTURE
       1 MOL1            1 RESIDUE      1      MOL     
       2 MOL1          151 RESIDUE      1      MOL     
@<SCITEGIC>MOL_PROPERTY
VM2 Rank
SciTegic.value.IntegerValue
3

@<SCITEGIC>MOL_PROPERTY
Conf_Id
SciTegic.value.IntegerValue
24700

@<SCITEGIC>MOL_PROPERTY
Probability
SciTegic.value.DoubleValue
4.51

@<SCITEGIC>MOL_PROPERTY
Sum Probability
SciTegic.value.DoubleValue
14.97

@<SCITEGIC>MOL_PROPERTY
Delta G
SciTegic.value.DoubleValue
0.112

@<SCITEGIC>MOL_PROPERTY
G
SciTegic.value.DoubleValue
577.929

@<SCITEGIC>MOL_PROPERTY
E
SciTegic.value.DoubleValue
376.726

@<SCITEGIC>MOL_PROPERTY
-TS
SciTegic.value.DoubleValue
201.203

@<SCITEGIC>MOL_PROPERTY
U+W
SciTegic.value.DoubleValue
243.484

@<SCITEGIC>MOL_PROPERTY
U
SciTegic.value.DoubleValue
274.951

@<SCITEGIC>MOL_PROPERTY
W
SciTegic.value.DoubleValue
-31.467

@<SCITEGIC>MOL_PROPERTY
W(PB)
SciTegic.value.DoubleValue
-37.581

@<SCITEGIC>MOL_PROPERTY
W(SA)
SciTegic.value.DoubleValue
6.114

@<SCITEGIC>MOL_PROPERTY
Valence
SciTegic.value.DoubleValue
160.217

@<SCITEGIC>MOL_PROPERTY
Coulomb
SciTegic.value.DoubleValue
142.240

@<SCITEGIC>MOL_PROPERTY
VdW
SciTegic.value.DoubleValue
-27.507

@<SCITEGIC>MOL_PROPERTY
VdW6
SciTegic.value.DoubleValue
-181.886

@<SCITEGIC>MOL_PROPERTY
VdW12
SciTegic.value.DoubleValue
154.379

@<SCITEGIC>MOL_PROPERTY
Bond
SciTegic.value.DoubleValue
4.427

@<SCITEGIC>MOL_PROPERTY
Angle
SciTegic.value.DoubleValue
13.974

@<SCITEGIC>MOL_PROPERTY
Pdih
SciTegic.value.DoubleValue
141.816

@<SCITEGIC>MOL_PROPERTY
Idih
SciTegic.value.DoubleValue
0.000

@<SCITEGIC>MOL_PROPERTY
Tether
SciTegic.value.DoubleValue
0.000

@<TRIPOS>MOLECULE
CD_guest-s17_vm2_rndm.mol2 : vm2 host+ligand conformer 4
         151         157           2
SMALL
USER_CHARGES
 
@<TRIPOS>ATOM
       1    C1      16.248952   15.162271   21.548245 C.3        1 MOL1         0.2972
       2    H1      15.157666   15.047693   21.529544 H          1 MOL1         0.0751
       3    O1      16.649121   16.511107   21.228137 O.3        1 MOL1        -0.3740
       4    C2      16.799830   14.785718   22.945754 C.3        1 MOL1         0.1003
       5    H2      16.556626   13.730067   23.123396 H          1 MOL1         0.0783
       6    O2      16.201862   15.585579   23.974665 O.3        1 MOL1        -0.5519
       7    H3      16.760415   15.427351   24.768611 H          1 MOL1         0.3769
       8    C3      18.337350   14.931524   22.978020 C.3        1 MOL1         0.1053
       9    H4      18.575833   15.995545   22.864290 H          1 MOL1         0.0783
      10    O3      18.852180   14.441639   24.222314 O.3        1 MOL1        -0.5519
      11    H5      19.826371   14.338467   24.099332 H          1 MOL1         0.3769
      12    C4      19.007967   14.165794   21.813214 C.3        1 MOL1         0.1018
      13    H6      19.001690   13.094882   22.056474 H          1 MOL1         0.0783
      14    C5      18.305649   14.408773   20.444743 C.3        1 MOL1         0.1043
      15    H7      18.554140   15.423751   20.107919 H          1 MOL1         0.0783
      16    O4      16.867231   14.279797   20.588370 O.3        1 MOL1        -0.3740
      17    C6      18.741834   13.423937   19.336558 C.3        1 MOL1         0.0138
      18    H8      19.801434   13.585174   19.103290 H          1 MOL1         0.0794
      19    H9      18.173226   13.647148   18.423892 H          1 MOL1         0.0794
      20    O5      18.524199   12.067396   19.735680 O.3        1 MOL1        -0.5486
      21    H10     17.566167   11.991823   19.942864 H          1 MOL1         0.3769
      22    C7      14.987065   20.240637   20.423450 C.3        1 MOL1         0.2972
      23    H11     14.369873   21.063885   20.041004 H          1 MOL1         0.0751
      24    O6      16.180037   20.728840   21.068723 O.3        1 MOL1        -0.3740
      25    C8      14.186369   19.381290   21.437335 C.3        1 MOL1         0.1003
      26    H12     13.292267   19.012161   20.918340 H          1 MOL1         0.0783
      27    O7      13.787197   20.158717   22.575107 O.3        1 MOL1        -0.5519
      28    H13     13.397081   19.506596   23.199590 H          1 MOL1         0.3769
      29    C9      15.004217   18.153953   21.908747 C.3        1 MOL1         0.1053
      30    H14     15.826612   18.520833   22.531349 H          1 MOL1         0.0783
      31    O8      14.167435   17.293208   22.689881 O.3        1 MOL1        -0.5519
      32    H15     14.779408   16.705544   23.199473 H          1 MOL1         0.3769
      33    C10     15.618620   17.376128   20.713623 C.3        1 MOL1         0.1018
      34    H16     14.833714   16.807363   20.197208 H          1 MOL1         0.0783
      35    C11     16.303806   18.314854   19.688048 C.3        1 MOL1         0.1043
      36    H17     17.223620   18.720531   20.131011 H          1 MOL1         0.0783
      37    O9      15.390308   19.381926   19.336814 O.3        1 MOL1        -0.3740
      38    C12     16.671446   17.574844   18.384960 C.3        1 MOL1         0.0138
      39    H18     15.753209   17.218098   17.899443 H          1 MOL1         0.0794
      40    H19     17.283800   16.696405   18.625553 H          1 MOL1         0.0794
      41    O10     17.392593   18.447763   17.513719 O.3        1 MOL1        -0.5486
      42    H20     16.845782   19.260187   17.431048 H          1 MOL1         0.3769
      43    C13     18.295769   24.205847   21.782231 C.3        1 MOL1         0.2972
      44    H21     18.647011   25.232500   21.944835 H          1 MOL1         0.0751
      45    O11     19.389024   23.266770   21.698304 O.3        1 MOL1        -0.3740
      46    C14     17.349479   23.771080   22.930099 C.3        1 MOL1         0.1003
      47    H22     16.469971   24.427419   22.901694 H          1 MOL1         0.0783
      48    O12     17.980584   23.887416   24.211089 O.3        1 MOL1        -0.5519
      49    H23     17.361296   23.443403   24.832203 H          1 MOL1         0.3769
      50    C15     16.871496   22.320489   22.702657 C.3        1 MOL1         0.1053
      51    H24     17.752752   21.671562   22.751709 H          1 MOL1         0.0783
      52    O13     15.925362   21.944797   23.712782 O.3        1 MOL1        -0.5519
      53    H25     15.315031   21.286556   23.295303 H          1 MOL1         0.3769
      54    C16     16.241003   22.149376   21.300807 C.3        1 MOL1         0.1018
      55    H26     15.242239   22.606288   21.311011 H          1 MOL1         0.0783
      56    C17     17.110929   22.781198   20.174351 C.3        1 MOL1         0.1043
      57    H27     17.992016   22.143469   20.022050 H          1 MOL1         0.0783
      58    O14     17.538077   24.114917   20.555802 O.3        1 MOL1        -0.3740
      59    C18     16.378274   22.896848   18.819065 C.3        1 MOL1         0.0138
      60    H28     16.156121   21.889817   18.443023 H          1 MOL1         0.0794
      61    H29     17.051231   23.373574   18.093802 H          1 MOL1         0.0794
      62    O15     15.170965   23.653415   18.947091 O.3        1 MOL1        -0.5486
      63    H30     15.433193   24.531809   19.302317 H          1 MOL1         0.3769
      64    C19     23.507172   22.829995   21.692199 C.3        1 MOL1         0.2972
      65    H31     24.591350   22.995533   21.660574 H          1 MOL1         0.0751
      66    O16     23.185600   21.422526   21.687723 O.3        1 MOL1        -0.3740
      67    C20     22.923849   23.488390   22.966819 C.3        1 MOL1         0.1003
      68    H32     23.166327   24.558030   22.920605 H          1 MOL1         0.0783
      69    O17     23.503982   22.926696   24.152013 O.3        1 MOL1        -0.5519
      70    H33     22.947374   23.272078   24.885174 H          1 MOL1         0.3769
      71    C21     21.385385   23.356758   23.018796 C.3        1 MOL1         0.1053
      72    H34     21.141420   22.298733   23.163281 H          1 MOL1         0.0783
      73    O18     20.884760   24.130363   24.115339 O.3        1 MOL1        -0.5519
      74    H35     19.906092   23.989164   24.145119 H          1 MOL1         0.3769
      75    C22     20.722433   23.811986   21.695464 C.3        1 MOL1         0.1018
      76    H36     20.724893   24.908696   21.642553 H          1 MOL1         0.0783
      77    C23     21.439162   23.234050   20.445111 C.3        1 MOL1         0.1043
      78    H37     21.219676   22.159418   20.386837 H          1 MOL1         0.0783
      79    O19     22.871580   23.437859   20.548243 O.3        1 MOL1        -0.3740
      80    C24     20.966194   23.887146   19.127520 C.3        1 MOL1         0.0138
      81    H38     19.885750   23.726979   19.014204 H          1 MOL1         0.0794
      82    H39     21.463733   23.386252   18.286342 H          1 MOL1         0.0794
      83    O20     21.260509   25.287087   19.115151 O.3        1 MOL1        -0.5486
      84    H40     22.222759   25.364290   19.301965 H          1 MOL1         0.3769
      85    C25     25.013538   17.700385   21.111064 C.3        1 MOL1         0.2972
      86    H41     25.728279   16.911585   20.845156 H          1 MOL1         0.0751
      87    O21     23.739420   17.156060   21.505392 O.3        1 MOL1        -0.3740
      88    C26     25.564333   18.544931   22.289630 C.3        1 MOL1         0.1003
      89    H42     26.529520   18.960694   21.972581 H          1 MOL1         0.0783
      90    O22     25.758240   17.738292   23.460565 O.3        1 MOL1        -0.5519
      91    H43     25.947676   18.384752   24.177168 H          1 MOL1         0.3769
      92    C27     24.621564   19.726802   22.619126 C.3        1 MOL1         0.1053
      93    H44     23.691843   19.310441   23.024792 H          1 MOL1         0.0783
      94    O23     25.241923   20.581160   23.587904 O.3        1 MOL1        -0.5519
      95    H45     24.595590   21.303640   23.788155 H          1 MOL1         0.3769
      96    C28     24.271936   20.537141   21.346643 C.3        1 MOL1         0.1018
      97    H46     25.163165   21.087895   21.017379 H          1 MOL1         0.0783
      98    C29     23.805715   19.622501   20.185579 C.3        1 MOL1         0.1043
      99    H47     22.829303   19.186574   20.436541 H          1 MOL1         0.0783
     100    O24     24.798765   18.584801   19.989573 O.3        1 MOL1        -0.3740
     101    C30     23.676165   20.393643   18.855147 C.3        1 MOL1         0.0138
     102    H48     24.651310   20.821725   18.587002 H          1 MOL1         0.0794
     103    H49     22.972211   21.224893   18.984695 H          1 MOL1         0.0794
     104    O25     23.211868   19.521094   17.823497 O.3        1 MOL1        -0.5486
     105    H50     23.845815   18.770839   17.798787 H          1 MOL1         0.3769
     106    C31     21.391513   13.743733   21.440792 C.3        1 MOL1         0.2972
     107    H51     20.995557   12.726001   21.330552 H          1 MOL1         0.0751
     108    O26     20.347393   14.690999   21.739770 O.3        1 MOL1        -0.3740
     109    C32     22.439458   13.795422   22.582820 C.3        1 MOL1         0.1003
     110    H52     23.234952   13.081828   22.331884 H          1 MOL1         0.0783
     111    O27     21.850428   13.431167   23.839800 O.3        1 MOL1        -0.5519
     112    H53     22.545843   13.624653   24.507469 H          1 MOL1         0.3769
     113    C33     23.076389   15.200911   22.698138 C.3        1 MOL1         0.1053
     114    H54     22.308604   15.883382   23.078032 H          1 MOL1         0.0783
     115    O28     24.178745   15.162581   23.612571 O.3        1 MOL1        -0.5519
     116    H55     24.601642   16.056838   23.582981 H          1 MOL1         0.3769
     117    C34     23.560236   15.737971   21.328891 C.3        1 MOL1         0.1018
     118    H56     24.496898   15.229829   21.064542 H          1 MOL1         0.0783
     119    C35     22.516091   15.528769   20.198714 C.3        1 MOL1         0.1043
     120    H57     21.678001   16.219225   20.363969 H          1 MOL1         0.0783
     121    O29     22.041502   14.161045   20.222267 O.3        1 MOL1        -0.3740
     122    C36     23.078153   15.796892   18.785488 C.3        1 MOL1         0.0138
     123    H58     23.375586   16.849477   18.712298 H          1 MOL1         0.0794
     124    H59     22.278551   15.632493   18.050949 H          1 MOL1         0.0794
     125    O30     24.193766   14.947000   18.502867 O.3        1 MOL1        -0.5486
     126    H60     23.876382   14.026421   18.637554 H          1 MOL1         0.3769
     127    C1      21.411223   18.420039   24.651622 C.3        1 MOL1        -0.1684
     128    H1      22.339919   17.835485   24.705209 H          1 MOL1         0.0833
     129    H2      20.775803   18.005441   25.442112 H          1 MOL1         0.0833
     130    C2      20.789197   18.163652   23.257029 C.3        1 MOL1        -0.1684
     131    H3      21.581465   18.256188   22.504572 H          1 MOL1         0.0833
     132    H4      20.452210   17.122269   23.211494 H          1 MOL1         0.0833
     133    C3      19.629790   19.087513   22.822344 C.3        1 MOL1        -0.1684
     134    H5      19.329825   18.780757   21.811200 H          1 MOL1         0.0833
     135    H6      19.987056   20.116970   22.706336 H          1 MOL1         0.0833
     136    C4      18.364841   19.037128   23.715698 C.3        1 MOL1        -0.1760
     137    H7      17.577677   19.573744   23.180850 H          1 MOL1         0.0833
     138    H8      18.012301   18.001362   23.788422 H          1 MOL1         0.0833
     139    C5      18.462911   19.617025   25.149875 C.3        1 MOL1         0.1219
     140    H9      18.857783   18.842951   25.818942 H          1 MOL1         0.0790
     141    C6      19.332100   20.891803   25.301663 C.3        1 MOL1        -0.1760
     142    H10     19.385140   21.445366   24.360076 H          1 MOL1         0.0833
     143    H11     18.831542   21.571489   26.003999 H          1 MOL1         0.0833
     144    C7      20.755770   20.642988   25.866437 C.3        1 MOL1        -0.1684
     145    H12     20.677882   20.107576   26.822215 H          1 MOL1         0.0833
     146    H13     21.192153   21.621275   26.109564 H          1 MOL1         0.0833
     147    C8      21.756348   19.901126   24.943565 C.3        1 MOL1        -0.1684
     148    H14     22.734941   19.924643   25.442072 H          1 MOL1         0.0833
     149    H15     21.899741   20.451347   24.008018 H          1 MOL1         0.0833
     150    O1      17.140179   19.925855   25.575627 O.3        1 MOL1        -0.5508
     151    H16     16.811733   20.644575   24.989044 H          1 MOL1         0.3780
@<TRIPOS>BOND
    1     1     2    1
    2     1     3    1
    3     1     4    1
    4     4     5    1
    5     4     6    1
    6     6     7    1
    7     4     8    1
    8     8     9    1
    9     8    10    1
   10    10    11    1
   11     8    12    1
   12    12    13    1
   13    12    14    1
   14    14    15    1
   15     1    16    1
   16    14    16    1
   17    14    17    1
   18    17    18    1
   19    17    19    1
   20    17    20    1
   21    20    21    1
   22    22    23    1
   23    22    24    1
   24    22    25    1
   25    25    26    1
   26    25    27    1
   27    27    28    1
   28    25    29    1
   29    29    30    1
   30    29    31    1
   31    31    32    1
   32     3    33    1
   33    29    33    1
   34    33    34    1
   35    33    35    1
   36    35    36    1
   37    22    37    1
   38    35    37    1
   39    35    38    1
   40    38    39    1
   41    38    40    1
   42    38    41    1
   43    41    42    1
   44    43    44    1
   45    43    45    1
   46    43    46    1
   47    46    47    1
   48    46    48    1
   49    48    49    1
   50    46    50    1
   51    50    51    1
   52    50    52    1
   53    52    53    1
   54    24    54    1
   55    50    54    1
   56    54    55    1
   57    54    56    1
   58    56    57    1
   59    43    58    1
   60    56    58    1
   61    56    59    1
   62    59    60    1
   63    59    61    1
   64    59    62    1
   65    62    63    1
   66    64    65    1
   67    64    66    1
   68    64    67    1
   69    67    68    1
   70    67    69    1
   71    69    70    1
   72    67    71    1
   73    71    72    1
   74    71    73    1
   75    73    74    1
   76    45    75    1
   77    71    75    1
   78    75    76    1
   79    75    77    1
   80    77    78    1
   81    64    79    1
   82    77    79    1
   83    77    80    1
   84    80    81    1
   85    80    82    1
   86    80    83    1
   87    83    84    1
   88    85    86    1
   89    85    87    1
   90    85    88    1
   91    88    89    1
   92    88    90    1
   93    90    91    1
   94    88    92    1
   95    92    93    1
   96    92    94    1
   97    94    95    1
   98    66    96    1
   99    92    96    1
  100    96    97    1
  101    96    98    1
  102    98    99    1
  103    85   100    1
  104    98   100    1
  105    98   101    1
  106   101   102    1
  107   101   103    1
  108   101   104    1
  109   104   105    1
  110   106   107    1
  111    12   108    1
  112   106   108    1
  113   106   109    1
  114   109   110    1
  115   109   111    1
  116   111   112    1
  117   109   113    1
  118   113   114    1
  119   113   115    1
  120   115   116    1
  121    87   117    1
  122   113   117    1
  123   117   118    1
  124   117   119    1
  125   119   120    1
  126   106   121    1
  127   119   121    1
  128   119   122    1
  129   122   123    1
  130   122   124    1
  131   122   125    1
  132   125   126    1
  133   127   128    1
  134   127   129    1
  135   127   130    1
  136   130   131    1
  137   130   132    1
  138   130   133    1
  139   133   134    1
  140   133   135    1
  141   133   136    1
  142   136   137    1
  143   136   138    1
  144   136   139    1
  145   139   140    1
  146   139   141    1
  147   141   142    1
  148   141   143    1
  149   141   144    1
  150   144   145    1
  151   144   146    1
  152   127   147    1
  153   144   147    1
  154   147   148    1
  155   147   149    1
  156   139   150    1
  157   150   151    1
@<TRIPOS>SUBSTRUCTURE
       1 MOL1            1 RESIDUE      1      MOL     
       2 MOL1          151 RESIDUE      1      MOL     
@<SCITEGIC>MOL_PROPERTY
VM2 Rank
SciTegic.value.IntegerValue
4

@<SCITEGIC>MOL_PROPERTY
Conf_Id
SciTegic.value.IntegerValue
27276

@<SCITEGIC>MOL_PROPERTY
Probability
SciTegic.value.DoubleValue
2.74

@<SCITEGIC>MOL_PROPERTY
Sum Probability
SciTegic.value.DoubleValue
17.71

@<SCITEGIC>MOL_PROPERTY
Delta G
SciTegic.value.DoubleValue
0.409

@<SCITEGIC>MOL_PROPERTY
G
SciTegic.value.DoubleValue
578.227

@<SCITEGIC>MOL_PROPERTY
E
SciTegic.value.DoubleValue
376.439

@<SCITEGIC>MOL_PROPERTY
-TS
SciTegic.value.DoubleValue
201.788

@<SCITEGIC>MOL_PROPERTY
U+W
SciTegic.value.DoubleValue
243.196

@<SCITEGIC>MOL_PROPERTY
U
SciTegic.value.DoubleValue
274.142

@<SCITEGIC>MOL_PROPERTY
W
SciTegic.value.DoubleValue
-30.945

@<SCITEGIC>MOL_PROPERTY
W(PB)
SciTegic.value.DoubleValue
-37.090

@<SCITEGIC>MOL_PROPERTY
W(SA)
SciTegic.value.DoubleValue
6.145

@<SCITEGIC>MOL_PROPERTY
Valence
SciTegic.value.DoubleValue
160.359

@<SCITEGIC>MOL_PROPERTY
Coulomb
SciTegic.value.DoubleValue
138.729

@<SCITEGIC>MOL_PROPERTY
VdW
SciTegic.value.DoubleValue
-24.946

@<SCITEGIC>MOL_PROPERTY
VdW6
SciTegic.value.DoubleValue
-180.031

@<SCITEGIC>MOL_PROPERTY
VdW12
SciTegic.value.DoubleValue
155.085

@<SCITEGIC>MOL_PROPERTY
Bond
SciTegic.value.DoubleValue
4.423

@<SCITEGIC>MOL_PROPERTY
Angle
SciTegic.value.DoubleValue
13.830

@<SCITEGIC>MOL_PROPERTY
Pdih
SciTegic.value.DoubleValue
142.106

@<SCITEGIC>MOL_PROPERTY
Idih
SciTegic.value.DoubleValue
0.000

@<SCITEGIC>MOL_PROPERTY
Tether
SciTegic.value.DoubleValue
0.000

@<TRIPOS>MOLECULE
CD_guest-s17_vm2_rndm.mol2 : vm2 host+ligand conformer 5
         151         157           2
SMALL
USER_CHARGES
 
@<TRIPOS>ATOM
       1    C1      16.218003   15.125603   21.216763 C.3        1 MOL1         0.2972
       2    H1      15.143974   14.957277   21.067128 H          1 MOL1         0.0751
       3    O1      16.559113   16.521273   21.101033 O.3        1 MOL1        -0.3740
       4    C2      16.650888   14.601893   22.610504 C.3        1 MOL1         0.1003
       5    H2      16.451126   13.522627   22.630159 H          1 MOL1         0.0783
       6    O2      15.910415   15.231684   23.663669 O.3        1 MOL1        -0.5519
       7    H3      16.399508   14.996637   24.484375 H          1 MOL1         0.3769
       8    C3      18.167209   14.804290   22.830275 C.3        1 MOL1         0.1053
       9    H4      18.363229   15.881834   22.877930 H          1 MOL1         0.0783
      10    O3      18.566025   14.178859   24.056264 O.3        1 MOL1        -0.5519
      11    H5      19.553507   14.226254   24.092556 H          1 MOL1         0.3769
      12    C4      18.986722   14.214883   21.657540 C.3        1 MOL1         0.1018
      13    H6      18.978295   13.120493   21.745488 H          1 MOL1         0.0783
      14    C5      18.423615   14.626115   20.267679 C.3        1 MOL1         0.1043
      15    H7      18.645946   15.689208   20.105056 H          1 MOL1         0.0783
      16    O4      16.987937   14.410205   20.227147 O.3        1 MOL1        -0.3740
      17    C6      19.041740   13.827915   19.098411 C.3        1 MOL1         0.0138
      18    H8      20.120468   14.024372   19.056798 H          1 MOL1         0.0794
      19    H9      18.607752   14.189580   18.156698 H          1 MOL1         0.0794
      20    O5      18.800059   12.425731   19.248650 O.3        1 MOL1        -0.5486
      21    H10     17.825603   12.323818   19.329770 H          1 MOL1         0.3769
      22    C7      14.904283   20.285405   20.546175 C.3        1 MOL1         0.2972
      23    H11     14.296196   21.142119   20.228854 H          1 MOL1         0.0751
      24    O6      16.089181   20.706351   21.252656 O.3        1 MOL1        -0.3740
      25    C8      14.084384   19.356076   21.476830 C.3        1 MOL1         0.1003
      26    H12     13.195048   19.034319   20.919573 H          1 MOL1         0.0783
      27    O7      13.677186   20.045830   22.667702 O.3        1 MOL1        -0.5519
      28    H13     13.284667   19.348414   23.238939 H          1 MOL1         0.3769
      29    C9      14.891486   18.093180   21.861136 C.3        1 MOL1         0.1053
      30    H14     15.706084   18.411821   22.519817 H          1 MOL1         0.0783
      31    O8      14.038006   17.177291   22.556411 O.3        1 MOL1        -0.5519
      32    H15     14.633002   16.508513   22.978845 H          1 MOL1         0.3769
      33    C10     15.525546   17.404630   20.623684 C.3        1 MOL1         0.1018
      34    H16     14.751768   16.863248   20.063113 H          1 MOL1         0.0783
      35    C11     16.214555   18.414448   19.669277 C.3        1 MOL1         0.1043
      36    H17     17.135715   18.784915   20.138033 H          1 MOL1         0.0783
      37    O9      15.308961   19.510744   19.397448 O.3        1 MOL1        -0.3740
      38    C12     16.582144   17.766847   18.318068 C.3        1 MOL1         0.0138
      39    H18     15.665027   17.433643   17.814100 H          1 MOL1         0.0794
      40    H19     17.204498   16.880430   18.498327 H          1 MOL1         0.0794
      41    O10     17.289815   18.702875   17.503146 O.3        1 MOL1        -0.5486
      42    H20     16.725818   19.506158   17.462786 H          1 MOL1         0.3769
      43    C13     18.366254   24.101824   21.944618 C.3        1 MOL1         0.2972
      44    H21     18.725826   25.126253   22.102507 H          1 MOL1         0.0751
      45    O11     19.456214   23.158618   21.879576 O.3        1 MOL1        -0.3740
      46    C14     17.420514   23.696962   23.103195 C.3        1 MOL1         0.1003
      47    H22     16.588587   24.413122   23.111479 H          1 MOL1         0.0783
      48    O12     18.100459   23.746557   24.365841 O.3        1 MOL1        -0.5519
      49    H23     17.483021   23.313938   24.996546 H          1 MOL1         0.3769
      50    C15     16.829246   22.286495   22.878494 C.3        1 MOL1         0.1053
      51    H24     17.642262   21.562030   22.990666 H          1 MOL1         0.0783
      52    O13     15.808836   22.028671   23.850660 O.3        1 MOL1        -0.5519
      53    H25     15.292048   21.257076   23.515598 H          1 MOL1         0.3769
      54    C16     16.231978   22.125881   21.459861 C.3        1 MOL1         0.1018
      55    H26     15.262760   22.641919   21.437458 H          1 MOL1         0.0783
      56    C17     17.159829   22.690505   20.346702 C.3        1 MOL1         0.1043
      57    H27     18.023430   22.019575   20.247584 H          1 MOL1         0.0783
      58    O14     17.620638   24.014454   20.713339 O.3        1 MOL1        -0.3740
      59    C18     16.488261   22.787530   18.955429 C.3        1 MOL1         0.0138
      60    H28     16.384753   21.774741   18.545450 H          1 MOL1         0.0794
      61    H29     17.156879   23.341724   18.283156 H          1 MOL1         0.0794
      62    O15     15.204740   23.422918   19.014452 O.3        1 MOL1        -0.5486
      63    H30     14.874740   23.513377   18.094044 H          1 MOL1         0.3769
      64    C19     23.573704   22.843050   21.509172 C.3        1 MOL1         0.2972
      65    H31     24.648989   23.024787   21.387187 H          1 MOL1         0.0751
      66    O16     23.269914   21.434335   21.526665 O.3        1 MOL1        -0.3740
      67    C20     23.080186   23.481265   22.831310 C.3        1 MOL1         0.1003
      68    H32     23.269764   24.560686   22.768598 H          1 MOL1         0.0783
      69    O17     23.783470   22.941988   23.959394 O.3        1 MOL1        -0.5519
      70    H33     23.273620   23.255423   24.739813 H          1 MOL1         0.3769
      71    C21     21.559515   23.273745   23.006142 C.3        1 MOL1         0.1053
      72    H34     21.386768   22.199969   23.143333 H          1 MOL1         0.0783
      73    O18     21.096961   23.999273   24.152366 O.3        1 MOL1        -0.5519
      74    H35     20.123134   23.836370   24.217643 H          1 MOL1         0.3769
      75    C22     20.775403   23.725952   21.751022 C.3        1 MOL1         0.1018
      76    H36     20.755714   24.823342   21.720188 H          1 MOL1         0.0783
      77    C23     21.399112   23.190168   20.433435 C.3        1 MOL1         0.1043
      78    H37     21.203941   22.111162   20.372497 H          1 MOL1         0.0783
      79    O19     22.829845   23.436736   20.424330 O.3        1 MOL1        -0.3740
      80    C24     20.808648   23.853170   19.169349 C.3        1 MOL1         0.0138
      81    H38     19.729505   23.658280   19.129480 H          1 MOL1         0.0794
      82    H39     21.259304   23.386564   18.283249 H          1 MOL1         0.0794
      83    O20     21.055826   25.262260   19.166459 O.3        1 MOL1        -0.5486
      84    H40     22.026821   25.368324   19.278557 H          1 MOL1         0.3769
      85    C25     24.985855   17.689956   20.978250 C.3        1 MOL1         0.2972
      86    H41     25.635324   16.857399   20.678830 H          1 MOL1         0.0751
      87    O21     23.761272   17.219145   21.576077 O.3        1 MOL1        -0.3740
      88    C26     25.714754   18.599833   22.002519 C.3        1 MOL1         0.1003
      89    H42     26.643450   18.944974   21.529884 H          1 MOL1         0.0783
      90    O22     26.031513   17.875746   23.200603 O.3        1 MOL1        -0.5519
      91    H43     26.369544   18.556658   23.824016 H          1 MOL1         0.3769
      92    C27     24.868972   19.847308   22.357821 C.3        1 MOL1         0.1053
      93    H44     24.014095   19.512307   22.954601 H          1 MOL1         0.0783
      94    O23     25.654440   20.764325   23.128780 O.3        1 MOL1        -0.5519
      95    H45     25.034592   21.470314   23.440775 H          1 MOL1         0.3769
      96    C28     24.322806   20.555223   21.091801 C.3        1 MOL1         0.1018
      97    H46     25.137859   21.100110   20.596847 H          1 MOL1         0.0783
      98    C29     23.702126   19.565169   20.074731 C.3        1 MOL1         0.1043
      99    H47     22.761521   19.169768   20.481910 H          1 MOL1         0.0783
     100    O24     24.647047   18.496473   19.830810 O.3        1 MOL1        -0.3740
     101    C30     23.407126   20.238407   18.718086 C.3        1 MOL1         0.0138
     102    H48     24.347001   20.601597   18.281247 H          1 MOL1         0.0794
     103    H49     22.756640   21.107472   18.877097 H          1 MOL1         0.0794
     104    O25     22.771798   19.309592   17.837983 O.3        1 MOL1        -0.5486
     105    H50     23.362349   18.525821   17.800583 H          1 MOL1         0.3769
     106    C31     21.397510   13.806029   21.791550 C.3        1 MOL1         0.2972
     107    H51     21.027894   12.773335   21.817117 H          1 MOL1         0.0751
     108    O26     20.315618   14.760679   21.785203 O.3        1 MOL1        -0.3740
     109    C32     22.294969   14.077438   23.026493 C.3        1 MOL1         0.1003
     110    H52     23.120034   13.353931   22.997604 H          1 MOL1         0.0783
     111    O27     21.561231   13.911044   24.248025 O.3        1 MOL1        -0.5519
     112    H53     22.163302   14.249506   24.948102 H          1 MOL1         0.3769
     113    C33     22.905002   15.497039   22.973287 C.3        1 MOL1         0.1053
     114    H54     22.090139   16.215414   23.114873 H          1 MOL1         0.0783
     115    O28     23.877942   15.651604   24.013956 O.3        1 MOL1        -0.5519
     116    H55     24.384834   16.471788   23.800434 H          1 MOL1         0.3769
     117    C34     23.572730   15.790707   21.609464 C.3        1 MOL1         0.1018
     118    H56     24.529425   15.252789   21.573145 H          1 MOL1         0.0783
     119    C35     22.680464   15.370247   20.406468 C.3        1 MOL1         0.1043
     120    H57     21.831922   16.064408   20.340273 H          1 MOL1         0.0783
     121    O29     22.197206   14.019944   20.610183 O.3        1 MOL1        -0.3740
     122    C36     23.413291   15.382941   19.046142 C.3        1 MOL1         0.0138
     123    H58     23.681742   16.413629   18.787798 H          1 MOL1         0.0794
     124    H59     22.721629   15.026397   18.271197 H          1 MOL1         0.0794
     125    O30     24.583497   14.560668   19.080485 O.3        1 MOL1        -0.5486
     126    H60     24.278970   13.661242   19.334767 H          1 MOL1         0.3769
     127    C1      21.221873   19.070288   23.462867 C.3        1 MOL1        -0.1684
     128    H1      21.251767   19.835905   22.676354 H          1 MOL1         0.0833
     129    H2      22.159237   18.511627   23.370511 H          1 MOL1         0.0833
     130    C2      20.072048   18.076126   23.166027 C.3        1 MOL1        -0.1684
     131    H3      20.305777   17.592964   22.207523 H          1 MOL1         0.0833
     132    H4      20.057269   17.262827   23.902580 H          1 MOL1         0.0833
     133    C3      18.679772   18.733289   23.024822 C.3        1 MOL1        -0.1684
     134    H5      18.159909   18.252554   22.189248 H          1 MOL1         0.0833
     135    H6      18.791487   19.774054   22.709030 H          1 MOL1         0.0833
     136    C4      17.759410   18.618975   24.270181 C.3        1 MOL1        -0.1760
     137    H7      16.937256   19.339237   24.178204 H          1 MOL1         0.0833
     138    H8      17.293610   17.625639   24.249388 H          1 MOL1         0.0833
     139    C5      18.413671   18.786576   25.659842 C.3        1 MOL1         0.1219
     140    H9      19.246687   18.079737   25.755432 H          1 MOL1         0.0790
     141    C6      18.913941   20.212830   25.979654 C.3        1 MOL1        -0.1760
     142    H10     18.068670   20.911593   25.925062 H          1 MOL1         0.0833
     143    H11     19.254319   20.226454   27.022947 H          1 MOL1         0.0833
     144    C7      20.067675   20.754459   25.101187 C.3        1 MOL1        -0.1684
     145    H12     20.474557   21.639659   25.608142 H          1 MOL1         0.0833
     146    H13     19.674346   21.132370   24.152275 H          1 MOL1         0.0833
     147    C8      21.229340   19.757248   24.853531 C.3        1 MOL1        -0.1684
     148    H14     21.282500   19.007799   25.653536 H          1 MOL1         0.0833
     149    H15     22.169503   20.321518   24.924915 H          1 MOL1         0.0833
     150    O1      17.434392   18.451100   26.635336 O.3        1 MOL1        -0.5508
     151    H16     17.871892   18.520382   27.507537 H          1 MOL1         0.3780
@<TRIPOS>BOND
    1     1     2    1
    2     1     3    1
    3     1     4    1
    4     4     5    1
    5     4     6    1
    6     6     7    1
    7     4     8    1
    8     8     9    1
    9     8    10    1
   10    10    11    1
   11     8    12    1
   12    12    13    1
   13    12    14    1
   14    14    15    1
   15     1    16    1
   16    14    16    1
   17    14    17    1
   18    17    18    1
   19    17    19    1
   20    17    20    1
   21    20    21    1
   22    22    23    1
   23    22    24    1
   24    22    25    1
   25    25    26    1
   26    25    27    1
   27    27    28    1
   28    25    29    1
   29    29    30    1
   30    29    31    1
   31    31    32    1
   32     3    33    1
   33    29    33    1
   34    33    34    1
   35    33    35    1
   36    35    36    1
   37    22    37    1
   38    35    37    1
   39    35    38    1
   40    38    39    1
   41    38    40    1
   42    38    41    1
   43    41    42    1
   44    43    44    1
   45    43    45    1
   46    43    46    1
   47    46    47    1
   48    46    48    1
   49    48    49    1
   50    46    50    1
   51    50    51    1
   52    50    52    1
   53    52    53    1
   54    24    54    1
   55    50    54    1
   56    54    55    1
   57    54    56    1
   58    56    57    1
   59    43    58    1
   60    56    58    1
   61    56    59    1
   62    59    60    1
   63    59    61    1
   64    59    62    1
   65    62    63    1
   66    64    65    1
   67    64    66    1
   68    64    67    1
   69    67    68    1
   70    67    69    1
   71    69    70    1
   72    67    71    1
   73    71    72    1
   74    71    73    1
   75    73    74    1
   76    45    75    1
   77    71    75    1
   78    75    76    1
   79    75    77    1
   80    77    78    1
   81    64    79    1
   82    77    79    1
   83    77    80    1
   84    80    81    1
   85    80    82    1
   86    80    83    1
   87    83    84    1
   88    85    86    1
   89    85    87    1
   90    85    88    1
   91    88    89    1
   92    88    90    1
   93    90    91    1
   94    88    92    1
   95    92    93    1
   96    92    94    1
   97    94    95    1
   98    66    96    1
   99    92    96    1
  100    96    97    1
  101    96    98    1
  102    98    99    1
  103    85   100    1
  104    98   100    1
  105    98   101    1
  106   101   102    1
  107   101   103    1
  108   101   104    1
  109   104   105    1
  110   106   107    1
  111    12   108    1
  112   106   108    1
  113   106   109    1
  114   109   110    1
  115   109   111    1
  116   111   112    1
  117   109   113    1
  118   113   114    1
  119   113   115    1
  120   115   116    1
  121    87   117    1
  122   113   117    1
  123   117   118    1
  124   117   119    1
  125   119   120    1
  126   106   121    1
  127   119   121    1
  128   119   122    1
  129   122   123    1
  130   122   124    1
  131   122   125    1
  132   125   126    1
  133   127   128    1
  134   127   129    1
  135   127   130    1
  136   130   131    1
  137   130   132    1
  138   130   133    1
  139   133   134    1
  140   133   135    1
  141   133   136    1
  142   136   137    1
  143   136   138    1
  144   136   139    1
  145   139   140    1
  146   139   141    1
  147   141   142    1
  148   141   143    1
  149   141   144    1
  150   144   145    1
  151   144   146    1
  152   127   147    1
  153   144   147    1
  154   147   148    1
  155   147   149    1
  156   139   150    1
  157   150   151    1
@<TRIPOS>SUBSTRUCTURE
       1 MOL1            1 RESIDUE      1      MOL     
       2 MOL1          151 RESIDUE      1      MOL     
@<SCITEGIC>MOL_PROPERTY
VM2 Rank
SciTegic.value.IntegerValue
5

@<SCITEGIC>MOL_PROPERTY
Conf_Id
SciTegic.value.IntegerValue
27873

@<SCITEGIC>MOL_PROPERTY
Probability
SciTegic.value.DoubleValue
2.44

@<SCITEGIC>MOL_PROPERTY
Sum Probability
SciTegic.value.DoubleValue
20.15

@<SCITEGIC>MOL_PROPERTY
Delta G
SciTegic.value.DoubleValue
0.478

@<SCITEGIC>MOL_PROPERTY
G
SciTegic.value.DoubleValue
578.296

@<SCITEGIC>MOL_PROPERTY
E
SciTegic.value.DoubleValue
378.067

@<SCITEGIC>MOL_PROPERTY
-TS
SciTegic.value.DoubleValue
200.229

@<SCITEGIC>MOL_PROPERTY
U+W
SciTegic.value.DoubleValue
244.825

@<SCITEGIC>MOL_PROPERTY
U
SciTegic.value.DoubleValue
279.871

@<SCITEGIC>MOL_PROPERTY
W
SciTegic.value.DoubleValue
-35.047

@<SCITEGIC>MOL_PROPERTY
W(PB)
SciTegic.value.DoubleValue
-41.239

@<SCITEGIC>MOL_PROPERTY
W(SA)
SciTegic.value.DoubleValue
6.192

@<SCITEGIC>MOL_PROPERTY
Valence
SciTegic.value.DoubleValue
159.524

@<SCITEGIC>MOL_PROPERTY
Coulomb
SciTegic.value.DoubleValue
146.019

@<SCITEGIC>MOL_PROPERTY
VdW
SciTegic.value.DoubleValue
-25.671

@<SCITEGIC>MOL_PROPERTY
VdW6
SciTegic.value.DoubleValue
-177.554

@<SCITEGIC>MOL_PROPERTY
VdW12
SciTegic.value.DoubleValue
151.883

@<SCITEGIC>MOL_PROPERTY
Bond
SciTegic.value.DoubleValue
4.297

@<SCITEGIC>MOL_PROPERTY
Angle
SciTegic.value.DoubleValue
13.554

@<SCITEGIC>MOL_PROPERTY
Pdih
SciTegic.value.DoubleValue
141.672

@<SCITEGIC>MOL_PROPERTY
Idih
SciTegic.value.DoubleValue
0.000

@<SCITEGIC>MOL_PROPERTY
Tether
SciTegic.value.DoubleValue
0.000

@<TRIPOS>MOLECULE
CD_guest-s17_vm2_rndm.mol2 : vm2 host+ligand conformer 6
         151         157           2
SMALL
USER_CHARGES
 
@<TRIPOS>ATOM
       1    C1      16.239332   15.134489   21.349629 C.3        1 MOL1         0.2972
       2    H1      15.159907   14.984324   21.220745 H          1 MOL1         0.0751
       3    O1      16.599874   16.525823   21.230552 O.3        1 MOL1        -0.3740
       4    C2      16.678521   14.606075   22.737544 C.3        1 MOL1         0.1003
       5    H2      16.450551   13.532608   22.765599 H          1 MOL1         0.0783
       6    O2      15.963462   15.264392   23.792020 O.3        1 MOL1        -0.5519
       7    H3      16.437759   15.001840   24.612388 H          1 MOL1         0.3769
       8    C3      18.202360   14.770050   22.937482 C.3        1 MOL1         0.1053
       9    H4      18.420305   15.841308   23.003018 H          1 MOL1         0.0783
      10    O3      18.601877   14.119181   24.149800 O.3        1 MOL1        -0.5519
      11    H5      19.587584   14.184448   24.200582 H          1 MOL1         0.3769
      12    C4      18.998431   14.184381   21.744392 C.3        1 MOL1         0.1018
      13    H6      18.996903   13.089839   21.830727 H          1 MOL1         0.0783
      14    C5      18.414533   14.595939   20.363269 C.3        1 MOL1         0.1043
      15    H7      18.650493   15.654590   20.191679 H          1 MOL1         0.0783
      16    O4      16.976498   14.403260   20.348638 O.3        1 MOL1        -0.3740
      17    C6      18.997113   13.783816   19.185264 C.3        1 MOL1         0.0138
      18    H8      20.077454   13.963266   19.120557 H          1 MOL1         0.0794
      19    H9      18.549838   14.148473   18.250935 H          1 MOL1         0.0794
      20    O5      18.736780   12.386203   19.345822 O.3        1 MOL1        -0.5486
      21    H10     17.762924   12.299927   19.449235 H          1 MOL1         0.3769
      22    C7      14.990957   20.255904   20.378831 C.3        1 MOL1         0.2972
      23    H11     14.399965   21.096519   19.992815 H          1 MOL1         0.0751
      24    O6      16.177721   20.708681   21.061052 O.3        1 MOL1        -0.3740
      25    C8      14.151527   19.394040   21.358390 C.3        1 MOL1         0.1003
      26    H12     13.278963   19.021615   20.806153 H          1 MOL1         0.0783
      27    O7      13.708408   20.161804   22.485645 O.3        1 MOL1        -0.5519
      28    H13     13.296094   19.503420   23.089061 H          1 MOL1         0.3769
      29    C9      14.964427   18.174172   21.851003 C.3        1 MOL1         0.1053
      30    H14     15.781326   18.555497   22.472453 H          1 MOL1         0.0783
      31    O8      14.127099   17.311018   22.629997 O.3        1 MOL1        -0.5519
      32    H15     14.726298   16.648306   23.055939 H          1 MOL1         0.3769
      33    C10     15.591720   17.389272   20.671273 C.3        1 MOL1         0.1018
      34    H16     14.808757   16.822540   20.149664 H          1 MOL1         0.0783
      35    C11     16.296021   18.315273   19.645867 C.3        1 MOL1         0.1043
      36    H17     17.222682   18.704551   20.087679 H          1 MOL1         0.0783
      37    O9      15.404222   19.401278   19.291326 O.3        1 MOL1        -0.3740
      38    C12     16.651126   17.566071   18.344740 C.3        1 MOL1         0.0138
      39    H18     15.726744   17.229183   17.856722 H          1 MOL1         0.0794
      40    H19     17.242907   16.674517   18.587951 H          1 MOL1         0.0794
      41    O10     17.394097   18.421449   17.474726 O.3        1 MOL1        -0.5486
      42    H20     16.867136   19.246797   17.390504 H          1 MOL1         0.3769
      43    C13     18.336902   24.117034   21.956147 C.3        1 MOL1         0.2972
      44    H21     18.683715   25.136132   22.168070 H          1 MOL1         0.0751
      45    O11     19.434820   23.187828   21.856429 O.3        1 MOL1        -0.3740
      46    C14     17.384629   23.639761   23.080308 C.3        1 MOL1         0.1003
      47    H22     16.536854   24.336612   23.107789 H          1 MOL1         0.0783
      48    O12     18.041283   23.645390   24.355810 O.3        1 MOL1        -0.5519
      49    H23     17.422525   23.167857   24.952914 H          1 MOL1         0.3769
      50    C15     16.828159   22.228342   22.782642 C.3        1 MOL1         0.1053
      51    H24     17.653412   21.511695   22.872629 H          1 MOL1         0.0783
      52    O13     15.800422   21.916181   23.730552 O.3        1 MOL1        -0.5519
      53    H25     15.254803   21.196823   23.329569 H          1 MOL1         0.3769
      54    C16     16.254442   22.118173   21.348824 C.3        1 MOL1         0.1018
      55    H26     15.264626   22.593994   21.333094 H          1 MOL1         0.0783
      56    C17     17.176247   22.765900   20.276838 C.3        1 MOL1         0.1043
      57    H27     18.054246   22.120234   20.141110 H          1 MOL1         0.0783
      58    O14     17.600767   24.080461   20.715136 O.3        1 MOL1        -0.3740
      59    C18     16.499203   22.929986   18.897703 C.3        1 MOL1         0.0138
      60    H28     16.275091   21.937035   18.486727 H          1 MOL1         0.0794
      61    H29     17.207929   23.413472   18.212109 H          1 MOL1         0.0794
      62    O15     15.300683   23.704371   18.998786 O.3        1 MOL1        -0.5486
      63    H30     15.562510   24.564846   19.395811 H          1 MOL1         0.3769
      64    C19     23.545201   22.831894   21.627979 C.3        1 MOL1         0.2972
      65    H31     24.627788   22.994985   21.552708 H          1 MOL1         0.0751
      66    O16     23.214727   21.429441   21.568714 O.3        1 MOL1        -0.3740
      67    C20     23.020722   23.422321   22.960454 C.3        1 MOL1         0.1003
      68    H32     23.243375   24.497237   22.953939 H          1 MOL1         0.0783
      69    O17     23.672659   22.811169   24.082981 O.3        1 MOL1        -0.5519
      70    H33     23.156322   23.111653   24.864114 H          1 MOL1         0.3769
      71    C21     21.488527   23.255452   23.078451 C.3        1 MOL1         0.1053
      72    H34     21.278390   22.186544   23.186750 H          1 MOL1         0.0783
      73    O18     21.008884   23.959594   24.230143 O.3        1 MOL1        -0.5519
      74    H35     20.033751   23.795747   24.276057 H          1 MOL1         0.3769
      75    C22     20.755817   23.761054   21.810777 C.3        1 MOL1         0.1018
      76    H36     20.735305   24.858798   21.821878 H          1 MOL1         0.0783
      77    C23     21.421418   23.275456   20.494680 C.3        1 MOL1         0.1043
      78    H37     21.209366   22.204400   20.377455 H          1 MOL1         0.0783
      79    O19     22.855036   23.492803   20.547324 O.3        1 MOL1        -0.3740
      80    C24     20.886112   24.004769   19.242559 C.3        1 MOL1         0.0138
      81    H38     19.805225   23.832815   19.159453 H          1 MOL1         0.0794
      82    H39     21.357721   23.569005   18.351674 H          1 MOL1         0.0794
      83    O20     21.158104   25.407597   19.310858 O.3        1 MOL1        -0.5486
      84    H40     22.126405   25.490056   19.460287 H          1 MOL1         0.3769
      85    C25     24.921978   17.704994   20.848658 C.3        1 MOL1         0.2972
      86    H41     25.561452   16.880706   20.507636 H          1 MOL1         0.0751
      87    O21     23.701662   17.222857   21.445195 O.3        1 MOL1        -0.3740
      88    C26     25.666703   18.576655   21.894038 C.3        1 MOL1         0.1003
      89    H42     26.577466   18.960217   21.416157 H          1 MOL1         0.0783
      90    O22     26.023250   17.808066   23.051693 O.3        1 MOL1        -0.5519
      91    H43     26.359577   18.469213   23.697278 H          1 MOL1         0.3769
      92    C27     24.802264   19.786278   22.321263 C.3        1 MOL1         0.1053
      93    H44     23.949441   19.393481   22.886638 H          1 MOL1         0.0783
      94    O23     25.567543   20.666806   23.153324 O.3        1 MOL1        -0.5519
      95    H45     24.936262   21.346584   23.498208 H          1 MOL1         0.3769
      96    C28     24.257893   20.558659   21.092187 C.3        1 MOL1         0.1018
      97    H46     25.077013   21.118597   20.621231 H          1 MOL1         0.0783
      98    C29     23.631504   19.618647   20.030910 C.3        1 MOL1         0.1043
      99    H47     22.688311   19.211742   20.420405 H          1 MOL1         0.0783
     100    O24     24.568818   18.554271   19.736594 O.3        1 MOL1        -0.3740
     101    C30     23.342756   20.353099   18.705062 C.3        1 MOL1         0.0138
     102    H48     24.287021   20.719439   18.280471 H          1 MOL1         0.0794
     103    H49     22.706895   21.224773   18.901970 H          1 MOL1         0.0794
     104    O25     22.690300   19.472046   17.789227 O.3        1 MOL1        -0.5486
     105    H50     23.260915   18.674721   17.727847 H          1 MOL1         0.3769
     106    C31     21.414320   13.789137   21.827976 C.3        1 MOL1         0.2972
     107    H51     21.052894   12.755107   21.890200 H          1 MOL1         0.0751
     108    O26     20.326167   14.737117   21.842725 O.3        1 MOL1        -0.3740
     109    C32     22.341296   14.096261   23.030688 C.3        1 MOL1         0.1003
     110    H52     23.168825   13.375851   23.004085 H          1 MOL1         0.0783
     111    O27     21.618963   13.942914   24.261481 O.3        1 MOL1        -0.5519
     112    H53     21.934238   14.669168   24.858076 H          1 MOL1         0.3769
     113    C33     22.945203   15.518804   22.923875 C.3        1 MOL1         0.1053
     114    H54     22.139780   16.244573   23.086637 H          1 MOL1         0.0783
     115    O28     23.969397   15.689300   23.910153 O.3        1 MOL1        -0.5519
     116    H55     24.459926   16.511441   23.669596 H          1 MOL1         0.3769
     117    C34     23.552592   15.792797   21.528166 C.3        1 MOL1         0.1018
     118    H56     24.519157   15.275201   21.465437 H          1 MOL1         0.0783
     119    C35     22.627807   15.333497   20.367199 C.3        1 MOL1         0.1043
     120    H57     21.766754   16.013401   20.316394 H          1 MOL1         0.0783
     121    O29     22.173141   13.981919   20.616062 O.3        1 MOL1        -0.3740
     122    C36     23.317120   15.338958   18.984338 C.3        1 MOL1         0.0138
     123    H58     23.572937   16.370462   18.712584 H          1 MOL1         0.0794
     124    H59     22.603651   14.973393   18.233783 H          1 MOL1         0.0794
     125    O30     24.492456   14.523366   18.988832 O.3        1 MOL1        -0.5486
     126    H60     24.202446   13.626460   19.268019 H          1 MOL1         0.3769
     127    C1      18.747255   18.810220   23.086326 C.3        1 MOL1        -0.1684
     128    H1      18.146853   19.124268   22.223562 H          1 MOL1         0.0833
     129    H2      19.178693   17.852401   22.781398 H          1 MOL1         0.0833
     130    C2      17.773756   18.634212   24.281253 C.3        1 MOL1        -0.1684
     131    H3      17.051805   19.460274   24.249000 H          1 MOL1         0.0833
     132    H4      17.186542   17.719342   24.132199 H          1 MOL1         0.0833
     133    C3      18.380511   18.620130   25.704271 C.3        1 MOL1        -0.1684
     134    H5      18.906349   19.560268   25.905843 H          1 MOL1         0.0833
     135    H6      17.544239   18.610290   26.416079 H          1 MOL1         0.0833
     136    C4      19.284285   17.407990   26.037301 C.3        1 MOL1        -0.1760
     137    H7      19.545744   17.473536   27.101356 H          1 MOL1         0.0833
     138    H8      18.700147   16.485168   25.925989 H          1 MOL1         0.0833
     139    C5      20.586555   17.261096   25.216863 C.3        1 MOL1         0.1219
     140    H9      20.340598   16.850528   24.231288 H          1 MOL1         0.0790
     141    C6      21.395376   18.572318   25.038096 C.3        1 MOL1        -0.1760
     142    H10     21.155810   19.287866   25.833644 H          1 MOL1         0.0833
     143    H11     22.462278   18.343698   25.165992 H          1 MOL1         0.0833
     144    C7      21.253162   19.249761   23.649456 C.3        1 MOL1        -0.1684
     145    H12     21.555066   18.544181   22.864177 H          1 MOL1         0.0833
     146    H13     21.982538   20.067415   23.613112 H          1 MOL1         0.0833
     147    C8      19.870869   19.852372   23.293429 C.3        1 MOL1        -0.1684
     148    H14     19.991792   20.394859   22.345923 H          1 MOL1         0.0833
     149    H15     19.576285   20.613705   24.026978 H          1 MOL1         0.0833
     150    O1      21.406560   16.318109   25.895735 O.3        1 MOL1        -0.5508
     151    H16     21.659182   16.734846   26.742774 H          1 MOL1         0.3780
@<TRIPOS>BOND
    1     1     2    1
    2     1     3    1
    3     1     4    1
    4     4     5    1
    5     4     6    1
    6     6     7    1
    7     4     8    1
    8     8     9    1
    9     8    10    1
   10    10    11    1
   11     8    12    1
   12    12    13    1
   13    12    14    1
   14    14    15    1
   15     1    16    1
   16    14    16    1
   17    14    17    1
   18    17    18    1
   19    17    19    1
   20    17    20    1
   21    20    21    1
   22    22    23    1
   23    22    24    1
   24    22    25    1
   25    25    26    1
   26    25    27    1
   27    27    28    1
   28    25    29    1
   29    29    30    1
   30    29    31    1
   31    31    32    1
   32     3    33    1
   33    29    33    1
   34    33    34    1
   35    33    35    1
   36    35    36    1
   37    22    37    1
   38    35    37    1
   39    35    38    1
   40    38    39    1
   41    38    40    1
   42    38    41    1
   43    41    42    1
   44    43    44    1
   45    43    45    1
   46    43    46    1
   47    46    47    1
   48    46    48    1
   49    48    49    1
   50    46    50    1
   51    50    51    1
   52    50    52    1
   53    52    53    1
   54    24    54    1
   55    50    54    1
   56    54    55    1
   57    54    56    1
   58    56    57    1
   59    43    58    1
   60    56    58    1
   61    56    59    1
   62    59    60    1
   63    59    61    1
   64    59    62    1
   65    62    63    1
   66    64    65    1
   67    64    66    1
   68    64    67    1
   69    67    68    1
   70    67    69    1
   71    69    70    1
   72    67    71    1
   73    71    72    1
   74    71    73    1
   75    73    74    1
   76    45    75    1
   77    71    75    1
   78    75    76    1
   79    75    77    1
   80    77    78    1
   81    64    79    1
   82    77    79    1
   83    77    80    1
   84    80    81    1
   85    80    82    1
   86    80    83    1
   87    83    84    1
   88    85    86    1
   89    85    87    1
   90    85    88    1
   91    88    89    1
   92    88    90    1
   93    90    91    1
   94    88    92    1
   95    92    93    1
   96    92    94    1
   97    94    95    1
   98    66    96    1
   99    92    96    1
  100    96    97    1
  101    96    98    1
  102    98    99    1
  103    85   100    1
  104    98   100    1
  105    98   101    1
  106   101   102    1
  107   101   103    1
  108   101   104    1
  109   104   105    1
  110   106   107    1
  111    12   108    1
  112   106   108    1
  113   106   109    1
  114   109   110    1
  115   109   111    1
  116   111   112    1
  117   109   113    1
  118   113   114    1
  119   113   115    1
  120   115   116    1
  121    87   117    1
  122   113   117    1
  123   117   118    1
  124   117   119    1
  125   119   120    1
  126   106   121    1
  127   119   121    1
  128   119   122    1
  129   122   123    1
  130   122   124    1
  131   122   125    1
  132   125   126    1
  133   127   128    1
  134   127   129    1
  135   127   130    1
  136   130   131    1
  137   130   132    1
  138   130   133    1
  139   133   134    1
  140   133   135    1
  141   133   136    1
  142   136   137    1
  143   136   138    1
  144   136   139    1
  145   139   140    1
  146   139   141    1
  147   141   142    1
  148   141   143    1
  149   141   144    1
  150   144   145    1
  151   144   146    1
  152   127   147    1
  153   144   147    1
  154   147   148    1
  155   147   149    1
  156   139   150    1
  157   150   151    1
@<TRIPOS>SUBSTRUCTURE
       1 MOL1            1 RESIDUE      1      MOL     
       2 MOL1          151 RESIDUE      1      MOL     
@<SCITEGIC>MOL_PROPERTY
VM2 Rank
SciTegic.value.IntegerValue
6

@<SCITEGIC>MOL_PROPERTY
Conf_Id
SciTegic.value.IntegerValue
27284

@<SCITEGIC>MOL_PROPERTY
Probability
SciTegic.value.DoubleValue
2.30

@<SCITEGIC>MOL_PROPERTY
Sum Probability
SciTegic.value.DoubleValue
22.45

@<SCITEGIC>MOL_PROPERTY
Delta G
SciTegic.value.DoubleValue
0.514

@<SCITEGIC>MOL_PROPERTY
G
SciTegic.value.DoubleValue
578.331

@<SCITEGIC>MOL_PROPERTY
E
SciTegic.value.DoubleValue
376.534

@<SCITEGIC>MOL_PROPERTY
-TS
SciTegic.value.DoubleValue
201.797

@<SCITEGIC>MOL_PROPERTY
U+W
SciTegic.value.DoubleValue
243.292

@<SCITEGIC>MOL_PROPERTY
U
SciTegic.value.DoubleValue
275.197

@<SCITEGIC>MOL_PROPERTY
W
SciTegic.value.DoubleValue
-31.904

@<SCITEGIC>MOL_PROPERTY
W(PB)
SciTegic.value.DoubleValue
-38.061

@<SCITEGIC>MOL_PROPERTY
W(SA)
SciTegic.value.DoubleValue
6.156

@<SCITEGIC>MOL_PROPERTY
Valence
SciTegic.value.DoubleValue
160.334

@<SCITEGIC>MOL_PROPERTY
Coulomb
SciTegic.value.DoubleValue
140.228

@<SCITEGIC>MOL_PROPERTY
VdW
SciTegic.value.DoubleValue
-25.365

@<SCITEGIC>MOL_PROPERTY
VdW6
SciTegic.value.DoubleValue
-179.479

@<SCITEGIC>MOL_PROPERTY
VdW12
SciTegic.value.DoubleValue
154.114

@<SCITEGIC>MOL_PROPERTY
Bond
SciTegic.value.DoubleValue
4.331

@<SCITEGIC>MOL_PROPERTY
Angle
SciTegic.value.DoubleValue
13.330

@<SCITEGIC>MOL_PROPERTY
Pdih
SciTegic.value.DoubleValue
142.673

@<SCITEGIC>MOL_PROPERTY
Idih
SciTegic.value.DoubleValue
0.000

@<SCITEGIC>MOL_PROPERTY
Tether
SciTegic.value.DoubleValue
0.000

@<TRIPOS>MOLECULE
CD_guest-s17_vm2_rndm.mol2 : vm2 host+ligand conformer 7
         151         157           2
SMALL
USER_CHARGES
 
@<TRIPOS>ATOM
       1    C1      16.213212   15.122424   21.227076 C.3        1 MOL1         0.2972
       2    H1      15.138438   14.956022   21.080685 H          1 MOL1         0.0751
       3    O1      16.557022   16.517040   21.107321 O.3        1 MOL1        -0.3740
       4    C2      16.648200   14.601816   22.621124 C.3        1 MOL1         0.1003
       5    H2      16.446401   13.523002   22.644371 H          1 MOL1         0.0783
       6    O2      15.910926   15.236358   23.673723 O.3        1 MOL1        -0.5519
       7    H3      16.400975   15.002942   24.494312 H          1 MOL1         0.3769
       8    C3      18.165434   14.802071   22.836783 C.3        1 MOL1         0.1053
       9    H4      18.363565   15.879282   22.881806 H          1 MOL1         0.0783
      10    O3      18.566119   14.178321   24.063002 O.3        1 MOL1        -0.5519
      11    H5      19.554271   14.214688   24.091740 H          1 MOL1         0.3769
      12    C4      18.981735   14.209067   21.663647 C.3        1 MOL1         0.1018
      13    H6      18.973637   13.115020   21.755917 H          1 MOL1         0.0783
      14    C5      18.415398   14.615720   20.273611 C.3        1 MOL1         0.1043
      15    H7      18.639363   15.677717   20.106138 H          1 MOL1         0.0783
      16    O4      16.979185   14.402588   20.237684 O.3        1 MOL1        -0.3740
      17    C6      19.028234   13.811655   19.105563 C.3        1 MOL1         0.0138
      18    H8      20.107156   14.006058   19.059157 H          1 MOL1         0.0794
      19    H9      18.591574   14.170152   18.163870 H          1 MOL1         0.0794
      20    O5      18.784449   12.410557   19.262550 O.3        1 MOL1        -0.5486
      21    H10     17.810036   12.310769   19.346892 H          1 MOL1         0.3769
      22    C7      14.912169   20.282270   20.524242 C.3        1 MOL1         0.2972
      23    H11     14.306088   21.137676   20.199011 H          1 MOL1         0.0751
      24    O6      16.101558   20.707576   21.220625 O.3        1 MOL1        -0.3740
      25    C8      14.093229   19.363244   21.466278 C.3        1 MOL1         0.1003
      26    H12     13.201445   19.038269   20.914813 H          1 MOL1         0.0783
      27    O7      13.691063   20.064157   22.652170 O.3        1 MOL1        -0.5519
      28    H13     13.295436   19.373034   23.229014 H          1 MOL1         0.3769
      29    C9      14.898952   18.102034   21.859238 C.3        1 MOL1         0.1053
      30    H14     15.717397   18.425006   22.511039 H          1 MOL1         0.0783
      31    O8      14.046701   17.194514   22.566912 O.3        1 MOL1        -0.5519
      32    H15     14.641567   16.524982   22.988374 H          1 MOL1         0.3769
      33    C10     15.525614   17.400346   20.625541 C.3        1 MOL1         0.1018
      34    H16     14.747632   16.857567   20.072178 H          1 MOL1         0.0783
      35    C11     16.215386   18.399548   19.660861 C.3        1 MOL1         0.1043
      36    H17     17.138838   18.770985   20.124448 H          1 MOL1         0.0783
      37    O9      15.312065   19.495977   19.381912 O.3        1 MOL1        -0.3740
      38    C12     16.577445   17.739775   18.314064 C.3        1 MOL1         0.0138
      39    H18     15.657551   17.410254   17.812735 H          1 MOL1         0.0794
      40    H19     17.193058   16.849856   18.499957 H          1 MOL1         0.0794
      41    O10     17.292065   18.664816   17.492668 O.3        1 MOL1        -0.5486
      42    H20     16.738263   19.475453   17.453162 H          1 MOL1         0.3769
      43    C13     18.361086   24.097966   21.957428 C.3        1 MOL1         0.2972
      44    H21     18.725224   25.118398   22.130300 H          1 MOL1         0.0751
      45    O11     19.446877   23.152061   21.868255 O.3        1 MOL1        -0.3740
      46    C14     17.421076   23.676238   23.114382 C.3        1 MOL1         0.1003
      47    H22     16.589431   24.392367   23.137338 H          1 MOL1         0.0783
      48    O12     18.106579   23.708033   24.374344 O.3        1 MOL1        -0.5519
      49    H23     17.491950   23.266779   25.001759 H          1 MOL1         0.3769
      50    C15     16.828081   22.269260   22.871858 C.3        1 MOL1         0.1053
      51    H24     17.640441   21.542798   22.975575 H          1 MOL1         0.0783
      52    O13     15.808096   22.002349   23.841727 O.3        1 MOL1        -0.5519
      53    H25     15.285769   21.238421   23.497200 H          1 MOL1         0.3769
      54    C16     16.229632   22.124569   21.451348 C.3        1 MOL1         0.1018
      55    H26     15.254501   22.629676   21.437221 H          1 MOL1         0.0783
      56    C17     17.149343   22.712985   20.343506 C.3        1 MOL1         0.1043
      57    H27     18.011696   22.044543   20.218441 H          1 MOL1         0.0783
      58    O14     17.604654   24.032907   20.730701 O.3        1 MOL1        -0.3740
      59    C18     16.458537   22.851337   18.968125 C.3        1 MOL1         0.0138
      60    H28     16.215659   21.852901   18.583607 H          1 MOL1         0.0794
      61    H29     17.166431   23.306655   18.262669 H          1 MOL1         0.0794
      62    O15     15.273078   23.646498   19.061975 O.3        1 MOL1        -0.5486
      63    H30     15.553053   24.514177   19.429743 H          1 MOL1         0.3769
      64    C19     23.564432   22.830309   21.495599 C.3        1 MOL1         0.2972
      65    H31     24.639484   23.011827   21.371153 H          1 MOL1         0.0751
      66    O16     23.261431   21.421390   21.519963 O.3        1 MOL1        -0.3740
      67    C20     23.072674   23.475256   22.815232 C.3        1 MOL1         0.1003
      68    H32     23.262000   24.554363   22.746616 H          1 MOL1         0.0783
      69    O17     23.777598   22.942247   23.945219 O.3        1 MOL1        -0.5519
      70    H33     23.267998   23.258829   24.724546 H          1 MOL1         0.3769
      71    C21     21.552288   23.268636   22.993318 C.3        1 MOL1         0.1053
      72    H34     21.379741   22.195367   23.134537 H          1 MOL1         0.0783
      73    O18     21.091943   23.998058   24.137936 O.3        1 MOL1        -0.5519
      74    H35     20.120184   23.826659   24.212099 H          1 MOL1         0.3769
      75    C22     20.767021   23.716352   21.737185 C.3        1 MOL1         0.1018
      76    H36     20.748995   24.813579   21.699824 H          1 MOL1         0.0783
      77    C23     21.388214   23.172469   20.421874 C.3        1 MOL1         0.1043
      78    H37     21.192462   22.093210   20.367906 H          1 MOL1         0.0783
      79    O19     22.818994   23.418359   20.408713 O.3        1 MOL1        -0.3740
      80    C24     20.794986   23.828089   19.155214 C.3        1 MOL1         0.0138
      81    H38     19.715644   23.633561   19.119559 H          1 MOL1         0.0794
      82    H39     21.243117   23.355889   18.270798 H          1 MOL1         0.0794
      83    O20     21.042423   25.237055   19.143044 O.3        1 MOL1        -0.5486
      84    H40     22.013699   25.343638   19.252099 H          1 MOL1         0.3769
      85    C25     24.995964   17.679953   21.002015 C.3        1 MOL1         0.2972
      86    H41     25.648605   16.847753   20.708900 H          1 MOL1         0.0751
      87    O21     23.782519   17.208941   21.622152 O.3        1 MOL1        -0.3740
      88    C26     25.729994   18.608471   22.005527 C.3        1 MOL1         0.1003
      89    H42     26.648995   18.956533   21.516381 H          1 MOL1         0.0783
      90    O22     26.069957   17.901939   23.207663 O.3        1 MOL1        -0.5519
      91    H43     26.402751   18.594543   23.820845 H          1 MOL1         0.3769
      92    C27     24.877098   19.852068   22.356759 C.3        1 MOL1         0.1053
      93    H44     24.030242   19.516261   22.964775 H          1 MOL1         0.0783
      94    O23     25.662541   20.783032   23.110902 O.3        1 MOL1        -0.5519
      95    H45     25.039197   21.484841   23.425389 H          1 MOL1         0.3769
      96    C28     24.314883   20.541556   21.087600 C.3        1 MOL1         0.1018
      97    H46     25.122415   21.084496   20.578366 H          1 MOL1         0.0783
      98    C29     23.691181   19.535617   20.087827 C.3        1 MOL1         0.1043
      99    H47     22.756826   19.138877   20.507827 H          1 MOL1         0.0783
     100    O24     24.640329   18.469558   19.847462 O.3        1 MOL1        -0.3740
     101    C30     23.380046   20.193516   18.727092 C.3        1 MOL1         0.0138
     102    H48     24.312650   20.565576   18.282211 H          1 MOL1         0.0794
     103    H49     22.719310   21.055392   18.883018 H          1 MOL1         0.0794
     104    O25     22.752183   19.250270   17.857187 O.3        1 MOL1        -0.5486
     105    H50     23.361065   18.481728   17.809196 H          1 MOL1         0.3769
     106    C31     21.393928   13.801901   21.772882 C.3        1 MOL1         0.2972
     107    H51     21.025035   12.768658   21.779136 H          1 MOL1         0.0751
     108    O26     20.310919   14.755326   21.786818 O.3        1 MOL1        -0.3740
     109    C32     22.293044   14.050393   23.011396 C.3        1 MOL1         0.1003
     110    H52     23.117847   13.327249   22.968311 H          1 MOL1         0.0783
     111    O27     21.560544   13.863147   24.230794 O.3        1 MOL1        -0.5519
     112    H53     22.163538   14.189462   24.935853 H          1 MOL1         0.3769
     113    C33     22.903166   15.470428   22.982146 C.3        1 MOL1         0.1053
     114    H54     22.088063   16.187474   23.129781 H          1 MOL1         0.0783
     115    O28     23.871285   15.610989   24.029337 O.3        1 MOL1        -0.5519
     116    H55     24.371488   16.438581   23.832004 H          1 MOL1         0.3769
     117    C34     23.577204   15.781777   21.625736 C.3        1 MOL1         0.1018
     118    H56     24.527786   15.233562   21.583536 H          1 MOL1         0.0783
     119    C35     22.683021   15.388125   20.414721 C.3        1 MOL1         0.1043
     120    H57     21.834648   16.083899   20.369416 H          1 MOL1         0.0783
     121    O29     22.189681   14.037906   20.593844 O.3        1 MOL1        -0.3740
     122    C36     23.405016   15.440371   19.046675 C.3        1 MOL1         0.0138
     123    H58     23.523331   16.489594   18.752036 H          1 MOL1         0.0794
     124    H59     22.760138   14.966943   18.294269 H          1 MOL1         0.0794
     125    O30     24.684294   14.794419   19.080924 O.3        1 MOL1        -0.5486
     126    H60     25.052554   14.815069   18.170991 H          1 MOL1         0.3769
     127    C1      21.232624   19.061793   23.460683 C.3        1 MOL1        -0.1684
     128    H1      21.261971   19.827506   22.674312 H          1 MOL1         0.0833
     129    H2      22.170420   18.503756   23.368340 H          1 MOL1         0.0833
     130    C2      20.083224   18.067186   23.163476 C.3        1 MOL1        -0.1684
     131    H3      20.317501   17.584128   22.205070 H          1 MOL1         0.0833
     132    H4      20.068333   17.253824   23.899910 H          1 MOL1         0.0833
     133    C3      18.690798   18.724019   23.021795 C.3        1 MOL1        -0.1684
     134    H5      18.171004   18.243132   22.186153 H          1 MOL1         0.0833
     135    H6      18.802892   19.764536   22.705466 H          1 MOL1         0.0833
     136    C4      17.770261   18.610558   24.267309 C.3        1 MOL1        -0.1760
     137    H7      16.949565   19.332524   24.176289 H          1 MOL1         0.0833
     138    H8      17.302230   17.618365   24.245637 H          1 MOL1         0.0833
     139    C5      18.424731   18.775470   25.657261 C.3        1 MOL1         0.1219
     140    H9      19.257729   18.068458   25.751610 H          1 MOL1         0.0790
     141    C6      18.925124   20.201114   25.979385 C.3        1 MOL1        -0.1760
     142    H10     18.079505   20.899636   25.927726 H          1 MOL1         0.0833
     143    H11     19.267468   20.212706   27.022057 H          1 MOL1         0.0833
     144    C7      20.076832   20.744626   25.099548 C.3        1 MOL1        -0.1684
     145    H12     20.482802   21.630837   25.605504 H          1 MOL1         0.0833
     146    H13     19.681473   21.121294   24.151001 H          1 MOL1         0.0833
     147    C8      21.239682   19.748950   24.851249 C.3        1 MOL1        -0.1684
     148    H14     21.294048   18.999552   25.651231 H          1 MOL1         0.0833
     149    H15     22.179136   20.314446   24.922252 H          1 MOL1         0.0833
     150    O1      17.445602   18.438415   26.632360 O.3        1 MOL1        -0.5508
     151    H16     17.883333   18.505901   27.504578 H          1 MOL1         0.3780
@<TRIPOS>BOND
    1     1     2    1
    2     1     3    1
    3     1     4    1
    4     4     5    1
    5     4     6    1
    6     6     7    1
    7     4     8    1
    8     8     9    1
    9     8    10    1
   10    10    11    1
   11     8    12    1
   12    12    13    1
   13    12    14    1
   14    14    15    1
   15     1    16    1
   16    14    16    1
   17    14    17    1
   18    17    18    1
   19    17    19    1
   20    17    20    1
   21    20    21    1
   22    22    23    1
   23    22    24    1
   24    22    25    1
   25    25    26    1
   26    25    27    1
   27    27    28    1
   28    25    29    1
   29    29    30    1
   30    29    31    1
   31    31    32    1
   32     3    33    1
   33    29    33    1
   34    33    34    1
   35    33    35    1
   36    35    36    1
   37    22    37    1
   38    35    37    1
   39    35    38    1
   40    38    39    1
   41    38    40    1
   42    38    41    1
   43    41    42    1
   44    43    44    1
   45    43    45    1
   46    43    46    1
   47    46    47    1
   48    46    48    1
   49    48    49    1
   50    46    50    1
   51    50    51    1
   52    50    52    1
   53    52    53    1
   54    24    54    1
   55    50    54    1
   56    54    55    1
   57    54    56    1
   58    56    57    1
   59    43    58    1
   60    56    58    1
   61    56    59    1
   62    59    60    1
   63    59    61    1
   64    59    62    1
   65    62    63    1
   66    64    65    1
   67    64    66    1
   68    64    67    1
   69    67    68    1
   70    67    69    1
   71    69    70    1
   72    67    71    1
   73    71    72    1
   74    71    73    1
   75    73    74    1
   76    45    75    1
   77    71    75    1
   78    75    76    1
   79    75    77    1
   80    77    78    1
   81    64    79    1
   82    77    79    1
   83    77    80    1
   84    80    81    1
   85    80    82    1
   86    80    83    1
   87    83    84    1
   88    85    86    1
   89    85    87    1
   90    85    88    1
   91    88    89    1
   92    88    90    1
   93    90    91    1
   94    88    92    1
   95    92    93    1
   96    92    94    1
   97    94    95    1
   98    66    96    1
   99    92    96    1
  100    96    97    1
  101    96    98    1
  102    98    99    1
  103    85   100    1
  104    98   100    1
  105    98   101    1
  106   101   102    1
  107   101   103    1
  108   101   104    1
  109   104   105    1
  110   106   107    1
  111    12   108    1
  112   106   108    1
  113   106   109    1
  114   109   110    1
  115   109   111    1
  116   111   112    1
  117   109   113    1
  118   113   114    1
  119   113   115    1
  120   115   116    1
  121    87   117    1
  122   113   117    1
  123   117   118    1
  124   117   119    1
  125   119   120    1
  126   106   121    1
  127   119   121    1
  128   119   122    1
  129   122   123    1
  130   122   124    1
  131   122   125    1
  132   125   126    1
  133   127   128    1
  134   127   129    1
  135   127   130    1
  136   130   131    1
  137   130   132    1
  138   130   133    1
  139   133   134    1
  140   133   135    1
  141   133   136    1
  142   136   137    1
  143   136   138    1
  144   136   139    1
  145   139   140    1
  146   139   141    1
  147   141   142    1
  148   141   143    1
  149   141   144    1
  150   144   145    1
  151   144   146    1
  152   127   147    1
  153   144   147    1
  154   147   148    1
  155   147   149    1
  156   139   150    1
  157   150   151    1
@<TRIPOS>SUBSTRUCTURE
       1 MOL1            1 RESIDUE      1      MOL     
       2 MOL1          151 RESIDUE      1      MOL     
@<SCITEGIC>MOL_PROPERTY
VM2 Rank
SciTegic.value.IntegerValue
7

@<SCITEGIC>MOL_PROPERTY
Conf_Id
SciTegic.value.IntegerValue
26637

@<SCITEGIC>MOL_PROPERTY
Probability
SciTegic.value.DoubleValue
2.18

@<SCITEGIC>MOL_PROPERTY
Sum Probability
SciTegic.value.DoubleValue
24.63

@<SCITEGIC>MOL_PROPERTY
Delta G
SciTegic.value.DoubleValue
0.544

@<SCITEGIC>MOL_PROPERTY
G
SciTegic.value.DoubleValue
578.362

@<SCITEGIC>MOL_PROPERTY
E
SciTegic.value.DoubleValue
378.063

@<SCITEGIC>MOL_PROPERTY
-TS
SciTegic.value.DoubleValue
200.298

@<SCITEGIC>MOL_PROPERTY
U+W
SciTegic.value.DoubleValue
244.821

@<SCITEGIC>MOL_PROPERTY
U
SciTegic.value.DoubleValue
279.813

@<SCITEGIC>MOL_PROPERTY
W
SciTegic.value.DoubleValue
-34.992

@<SCITEGIC>MOL_PROPERTY
W(PB)
SciTegic.value.DoubleValue
-41.213

@<SCITEGIC>MOL_PROPERTY
W(SA)
SciTegic.value.DoubleValue
6.221

@<SCITEGIC>MOL_PROPERTY
Valence
SciTegic.value.DoubleValue
159.394

@<SCITEGIC>MOL_PROPERTY
Coulomb
SciTegic.value.DoubleValue
146.103

@<SCITEGIC>MOL_PROPERTY
VdW
SciTegic.value.DoubleValue
-25.684

@<SCITEGIC>MOL_PROPERTY
VdW6
SciTegic.value.DoubleValue
-177.724

@<SCITEGIC>MOL_PROPERTY
VdW12
SciTegic.value.DoubleValue
152.040

@<SCITEGIC>MOL_PROPERTY
Bond
SciTegic.value.DoubleValue
4.301

@<SCITEGIC>MOL_PROPERTY
Angle
SciTegic.value.DoubleValue
13.554

@<SCITEGIC>MOL_PROPERTY
Pdih
SciTegic.value.DoubleValue
141.538

@<SCITEGIC>MOL_PROPERTY
Idih
SciTegic.value.DoubleValue
0.000

@<SCITEGIC>MOL_PROPERTY
Tether
SciTegic.value.DoubleValue
0.000

@<TRIPOS>MOLECULE
CD_guest-s17_vm2_rndm.mol2 : vm2 host+ligand conformer 8
         151         157           2
SMALL
USER_CHARGES
 
@<TRIPOS>ATOM
       1    C1      16.238960   15.067163   21.145776 C.3        1 MOL1         0.2972
       2    H1      15.171268   14.881386   20.974235 H          1 MOL1         0.0751
       3    O1      16.524927   16.476082   21.252847 O.3        1 MOL1        -0.3740
       4    C2      16.688151   14.361949   22.448555 C.3        1 MOL1         0.1003
       5    H2      16.504992   13.287353   22.318984 H          1 MOL1         0.0783
       6    O2      15.936932   14.836154   23.575228 O.3        1 MOL1        -0.5519
       7    H3      16.396181   14.455908   24.357136 H          1 MOL1         0.3769
       8    C3      18.200933   14.558047   22.699448 C.3        1 MOL1         0.1053
       9    H4      18.371426   15.616433   22.926429 H          1 MOL1         0.0783
      10    O3      18.600464   13.755109   23.815936 O.3        1 MOL1        -0.5519
      11    H5      19.478659   14.106296   24.107007 H          1 MOL1         0.3769
      12    C4      19.043405   14.205257   21.445157 C.3        1 MOL1         0.1018
      13    H6      19.113415   13.114654   21.337736 H          1 MOL1         0.0783
      14    C5      18.451371   14.803608   20.140019 C.3        1 MOL1         0.1043
      15    H7      18.627685   15.887882   20.146554 H          1 MOL1         0.0783
      16    O4      17.027970   14.535592   20.062162 O.3        1 MOL1        -0.3740
      17    C6      19.106567   14.227323   18.865208 C.3        1 MOL1         0.0138
      18    H8      20.185911   14.426833   18.894256 H          1 MOL1         0.0794
      19    H9      18.697697   14.750893   17.990714 H          1 MOL1         0.0794
      20    O5      18.868426   12.820861   18.756624 O.3        1 MOL1        -0.5486
      21    H10     17.894686   12.704237   18.828335 H          1 MOL1         0.3769
      22    C7      14.838025   20.233823   20.705063 C.3        1 MOL1         0.2972
      23    H11     14.197521   21.075517   20.412340 H          1 MOL1         0.0751
      24    O6      16.074902   20.681659   21.293942 O.3        1 MOL1        -0.3740
      25    C8      14.110750   19.328624   21.733012 C.3        1 MOL1         0.1003
      26    H12     13.185790   18.971420   21.262029 H          1 MOL1         0.0783
      27    O7      13.787021   20.052381   22.928604 O.3        1 MOL1        -0.5519
      28    H13     13.462079   19.366517   23.554080 H          1 MOL1         0.3769
      29    C9      14.973626   18.096175   22.090880 C.3        1 MOL1         0.1053
      30    H14     15.848232   18.453243   22.646668 H          1 MOL1         0.0783
      31    O8      14.216062   17.191343   22.903691 O.3        1 MOL1        -0.5519
      32    H15     14.827385   16.453931   23.152830 H          1 MOL1         0.3769
      33    C10     15.480089   17.367453   20.822114 C.3        1 MOL1         0.1018
      34    H16     14.643450   16.830710   20.355270 H          1 MOL1         0.0783
      35    C11     16.089020   18.341381   19.780460 C.3        1 MOL1         0.1043
      36    H17     17.045726   18.725866   20.158860 H          1 MOL1         0.0783
      37    O9      15.155162   19.425116   19.552102 O.3        1 MOL1        -0.3740
      38    C12     16.338479   17.655508   18.421047 C.3        1 MOL1         0.0138
      39    H18     15.384420   17.289181   18.019022 H          1 MOL1         0.0794
      40    H19     16.994007   16.787942   18.566190 H          1 MOL1         0.0794
      41    O10     16.944239   18.575935   17.511655 O.3        1 MOL1        -0.5486
      42    H20     16.363578   19.368517   17.503841 H          1 MOL1         0.3769
      43    C13     18.384802   24.091223   21.834439 C.3        1 MOL1         0.2972
      44    H21     18.741475   25.124767   21.925318 H          1 MOL1         0.0751
      45    O11     19.469012   23.144201   21.894410 O.3        1 MOL1        -0.3740
      46    C14     17.394127   23.771214   22.981849 C.3        1 MOL1         0.1003
      47    H22     16.569484   24.492301   22.910975 H          1 MOL1         0.0783
      48    O12     18.024025   23.899005   24.264756 O.3        1 MOL1        -0.5519
      49    H23     17.366140   23.536170   24.899121 H          1 MOL1         0.3769
      50    C15     16.797217   22.352643   22.832144 C.3        1 MOL1         0.1053
      51    H24     17.594709   21.621104   23.014997 H          1 MOL1         0.0783
      52    O13     15.739726   22.183458   23.784096 O.3        1 MOL1        -0.5519
      53    H25     15.233189   21.381058   23.507147 H          1 MOL1         0.3769
      54    C16     16.248983   22.106282   21.407745 C.3        1 MOL1         0.1018
      55    H26     15.299495   22.647939   21.303217 H          1 MOL1         0.0783
      56    C17     17.241888   22.560059   20.302890 C.3        1 MOL1         0.1043
      57    H27     18.099004   21.872754   20.299289 H          1 MOL1         0.0783
      58    O14     17.691497   23.908494   20.581834 O.3        1 MOL1        -0.3740
      59    C18     16.629289   22.561516   18.884733 C.3        1 MOL1         0.0138
      60    H28     16.370845   21.533125   18.603584 H          1 MOL1         0.0794
      61    H29     17.388793   22.911928   18.173179 H          1 MOL1         0.0794
      62    O15     15.469541   23.397076   18.823551 O.3        1 MOL1        -0.5486
      63    H30     15.758776   24.288415   19.120656 H          1 MOL1         0.3769
      64    C19     23.575636   22.752962   21.659980 C.3        1 MOL1         0.2972
      65    H31     24.659276   22.916833   21.604915 H          1 MOL1         0.0751
      66    O16     23.240502   21.357055   21.510830 O.3        1 MOL1        -0.3740
      67    C20     23.045906   23.263347   23.022576 C.3        1 MOL1         0.1003
      68    H32     23.285638   24.332522   23.089531 H          1 MOL1         0.0783
      69    O17     23.672094   22.567613   24.109558 O.3        1 MOL1        -0.5519
      70    H33     23.162781   22.839607   24.905313 H          1 MOL1         0.3769
      71    C21     21.512255   23.112896   23.114672 C.3        1 MOL1         0.1053
      72    H34     21.289248   22.042892   23.159956 H          1 MOL1         0.0783
      73    O18     21.030147   23.759982   24.298429 O.3        1 MOL1        -0.5519
      74    H35     20.042328   23.709320   24.269998 H          1 MOL1         0.3769
      75    C22     20.797858   23.698443   21.873645 C.3        1 MOL1         0.1018
      76    H36     20.795412   24.793313   21.955850 H          1 MOL1         0.0783
      77    C23     21.466364   23.279808   20.535161 C.3        1 MOL1         0.1043
      78    H37     21.246390   22.219028   20.353613 H          1 MOL1         0.0783
      79    O19     22.900362   23.481706   20.614809 O.3        1 MOL1        -0.3740
      80    C24     20.955091   24.083693   19.319196 C.3        1 MOL1         0.0138
      81    H38     19.880147   23.903591   19.192769 H          1 MOL1         0.0794
      82    H39     21.456493   23.712399   18.415460 H          1 MOL1         0.0794
      83    O20     21.206040   25.482419   19.485424 O.3        1 MOL1        -0.5486
      84    H40     22.171385   25.568560   19.650401 H          1 MOL1         0.3769
      85    C25     24.894377   17.679056   20.555220 C.3        1 MOL1         0.2972
      86    H41     25.501234   16.841957   20.187213 H          1 MOL1         0.0751
      87    O21     23.605263   17.233258   21.022544 O.3        1 MOL1        -0.3740
      88    C26     25.628399   18.451599   21.684931 C.3        1 MOL1         0.1003
      89    H42     26.550381   18.862513   21.253222 H          1 MOL1         0.0783
      90    O22     25.967246   17.605536   22.790598 O.3        1 MOL1        -0.5519
      91    H43     26.349416   18.213529   23.463413 H          1 MOL1         0.3769
      92    C27     24.765866   19.634976   22.178478 C.3        1 MOL1         0.1053
      93    H44     23.875189   19.217462   22.661574 H          1 MOL1         0.0783
      94    O23     25.507395   20.420609   23.119793 O.3        1 MOL1        -0.5519
      95    H45     24.881448   21.096970   23.480978 H          1 MOL1         0.3769
      96    C28     24.299854   20.523899   20.999278 C.3        1 MOL1         0.1018
      97    H46     25.152212   21.114956   20.638069 H          1 MOL1         0.0783
      98    C29     23.735211   19.704757   19.807545 C.3        1 MOL1         0.1043
      99    H47     22.748177   19.305308   20.076737 H          1 MOL1         0.0783
     100    O24     24.654050   18.625896   19.491627 O.3        1 MOL1        -0.3740
     101    C30     23.582266   20.568695   18.538290 C.3        1 MOL1         0.0138
     102    H48     24.570536   20.932136   18.226404 H          1 MOL1         0.0794
     103    H49     22.961746   21.444386   18.766896 H          1 MOL1         0.0794
     104    O25     22.978126   19.803558   17.494110 O.3        1 MOL1        -0.5486
     105    H50     23.483710   18.961314   17.448391 H          1 MOL1         0.3769
     106    C31     21.376473   13.970656   22.159722 C.3        1 MOL1         0.2972
     107    H51     20.980552   13.005703   22.500972 H          1 MOL1         0.0751
     108    O26     20.339546   14.810934   21.613095 O.3        1 MOL1        -0.3740
     109    C32     22.071190   14.709155   23.330337 C.3        1 MOL1         0.1003
     110    H52     22.911713   14.082333   23.655667 H          1 MOL1         0.0783
     111    O27     21.185377   14.910389   24.439209 O.3        1 MOL1        -0.5519
     112    H53     21.659808   15.552417   25.014205 H          1 MOL1         0.3769
     113    C33     22.648658   16.064265   22.866167 C.3        1 MOL1         0.1053
     114    H54     21.809985   16.732969   22.625376 H          1 MOL1         0.0783
     115    O28     23.431616   16.619783   23.929652 O.3        1 MOL1        -0.5519
     116    H55     24.169298   17.118351   23.505885 H          1 MOL1         0.3769
     117    C34     23.522553   15.914400   21.594241 C.3        1 MOL1         0.1018
     118    H56     24.509081   15.527875   21.883291 H          1 MOL1         0.0783
     119    C35     22.880312   14.989008   20.520002 C.3        1 MOL1         0.1043
     120    H57     22.052821   15.536230   20.049136 H          1 MOL1         0.0783
     121    O29     22.372915   13.776489   21.133498 O.3        1 MOL1        -0.3740
     122    C36     23.857103   14.574871   19.397072 C.3        1 MOL1         0.0138
     123    H58     24.153987   15.468689   18.832854 H          1 MOL1         0.0794
     124    H59     23.330373   13.909801   18.699552 H          1 MOL1         0.0794
     125    O30     25.012361   13.920573   19.929336 O.3        1 MOL1        -0.5486
     126    H60     24.680839   13.149125   20.440804 H          1 MOL1         0.3769
     127    C1      18.349911   20.294461   25.734207 C.3        1 MOL1        -0.1684
     128    H1      17.736845   20.768641   26.512443 H          1 MOL1         0.0833
     129    H2      18.567027   21.104282   25.030361 H          1 MOL1         0.0833
     130    C2      17.474333   19.200948   25.069184 C.3        1 MOL1        -0.1684
     131    H3      16.928188   18.680220   25.867184 H          1 MOL1         0.0833
     132    H4      16.704908   19.685079   24.455405 H          1 MOL1         0.0833
     133    C3      18.198277   18.120423   24.227785 C.3        1 MOL1        -0.1684
     134    H5      18.897326   17.553744   24.853227 H          1 MOL1         0.0833
     135    H6      17.439890   17.385901   23.929864 H          1 MOL1         0.0833
     136    C4      18.905009   18.613621   22.937501 C.3        1 MOL1        -0.1760
     137    H7      19.277637   17.732276   22.399203 H          1 MOL1         0.0833
     138    H8      18.164533   19.078710   22.276293 H          1 MOL1         0.0833
     139    C5      20.082266   19.600391   23.115192 C.3        1 MOL1         0.1219
     140    H9      19.674637   20.596096   23.319536 H          1 MOL1         0.0790
     141    C6      21.078444   19.217838   24.240705 C.3        1 MOL1        -0.1760
     142    H10     21.023637   18.145170   24.458670 H          1 MOL1         0.0833
     143    H11     22.098918   19.381494   23.879933 H          1 MOL1         0.0833
     144    C7      20.937919   20.037127   25.550334 C.3        1 MOL1        -0.1684
     145    H12     21.021118   21.108069   25.326157 H          1 MOL1         0.0833
     146    H13     21.804142   19.801942   26.183393 H          1 MOL1         0.0833
     147    C8      19.659036   19.787685   26.389961 C.3        1 MOL1        -0.1684
     148    H14     19.785916   20.328508   27.337482 H          1 MOL1         0.0833
     149    H15     19.577671   18.729897   26.670626 H          1 MOL1         0.0833
     150    O1      20.786961   19.656088   21.877859 O.3        1 MOL1        -0.5508
     151    H16     21.548538   20.261392   21.996903 H          1 MOL1         0.3780
@<TRIPOS>BOND
    1     1     2    1
    2     1     3    1
    3     1     4    1
    4     4     5    1
    5     4     6    1
    6     6     7    1
    7     4     8    1
    8     8     9    1
    9     8    10    1
   10    10    11    1
   11     8    12    1
   12    12    13    1
   13    12    14    1
   14    14    15    1
   15     1    16    1
   16    14    16    1
   17    14    17    1
   18    17    18    1
   19    17    19    1
   20    17    20    1
   21    20    21    1
   22    22    23    1
   23    22    24    1
   24    22    25    1
   25    25    26    1
   26    25    27    1
   27    27    28    1
   28    25    29    1
   29    29    30    1
   30    29    31    1
   31    31    32    1
   32     3    33    1
   33    29    33    1
   34    33    34    1
   35    33    35    1
   36    35    36    1
   37    22    37    1
   38    35    37    1
   39    35    38    1
   40    38    39    1
   41    38    40    1
   42    38    41    1
   43    41    42    1
   44    43    44    1
   45    43    45    1
   46    43    46    1
   47    46    47    1
   48    46    48    1
   49    48    49    1
   50    46    50    1
   51    50    51    1
   52    50    52    1
   53    52    53    1
   54    24    54    1
   55    50    54    1
   56    54    55    1
   57    54    56    1
   58    56    57    1
   59    43    58    1
   60    56    58    1
   61    56    59    1
   62    59    60    1
   63    59    61    1
   64    59    62    1
   65    62    63    1
   66    64    65    1
   67    64    66    1
   68    64    67    1
   69    67    68    1
   70    67    69    1
   71    69    70    1
   72    67    71    1
   73    71    72    1
   74    71    73    1
   75    73    74    1
   76    45    75    1
   77    71    75    1
   78    75    76    1
   79    75    77    1
   80    77    78    1
   81    64    79    1
   82    77    79    1
   83    77    80    1
   84    80    81    1
   85    80    82    1
   86    80    83    1
   87    83    84    1
   88    85    86    1
   89    85    87    1
   90    85    88    1
   91    88    89    1
   92    88    90    1
   93    90    91    1
   94    88    92    1
   95    92    93    1
   96    92    94    1
   97    94    95    1
   98    66    96    1
   99    92    96    1
  100    96    97    1
  101    96    98    1
  102    98    99    1
  103    85   100    1
  104    98   100    1
  105    98   101    1
  106   101   102    1
  107   101   103    1
  108   101   104    1
  109   104   105    1
  110   106   107    1
  111    12   108    1
  112   106   108    1
  113   106   109    1
  114   109   110    1
  115   109   111    1
  116   111   112    1
  117   109   113    1
  118   113   114    1
  119   113   115    1
  120   115   116    1
  121    87   117    1
  122   113   117    1
  123   117   118    1
  124   117   119    1
  125   119   120    1
  126   106   121    1
  127   119   121    1
  128   119   122    1
  129   122   123    1
  130   122   124    1
  131   122   125    1
  132   125   126    1
  133   127   128    1
  134   127   129    1
  135   127   130    1
  136   130   131    1
  137   130   132    1
  138   130   133    1
  139   133   134    1
  140   133   135    1
  141   133   136    1
  142   136   137    1
  143   136   138    1
  144   136   139    1
  145   139   140    1
  146   139   141    1
  147   141   142    1
  148   141   143    1
  149   141   144    1
  150   144   145    1
  151   144   146    1
  152   127   147    1
  153   144   147    1
  154   147   148    1
  155   147   149    1
  156   139   150    1
  157   150   151    1
@<TRIPOS>SUBSTRUCTURE
       1 MOL1            1 RESIDUE      1      MOL     
       2 MOL1          151 RESIDUE      1      MOL     
@<SCITEGIC>MOL_PROPERTY
VM2 Rank
SciTegic.value.IntegerValue
8

@<SCITEGIC>MOL_PROPERTY
Conf_Id
SciTegic.value.IntegerValue
24042

@<SCITEGIC>MOL_PROPERTY
Probability
SciTegic.value.DoubleValue
1.98

@<SCITEGIC>MOL_PROPERTY
Sum Probability
SciTegic.value.DoubleValue
26.61

@<SCITEGIC>MOL_PROPERTY
Delta G
SciTegic.value.DoubleValue
0.603

@<SCITEGIC>MOL_PROPERTY
G
SciTegic.value.DoubleValue
578.420

@<SCITEGIC>MOL_PROPERTY
E
SciTegic.value.DoubleValue
376.039

@<SCITEGIC>MOL_PROPERTY
-TS
SciTegic.value.DoubleValue
202.381

@<SCITEGIC>MOL_PROPERTY
U+W
SciTegic.value.DoubleValue
242.797

@<SCITEGIC>MOL_PROPERTY
U
SciTegic.value.DoubleValue
273.547

@<SCITEGIC>MOL_PROPERTY
W
SciTegic.value.DoubleValue
-30.751

@<SCITEGIC>MOL_PROPERTY
W(PB)
SciTegic.value.DoubleValue
-37.000

@<SCITEGIC>MOL_PROPERTY
W(SA)
SciTegic.value.DoubleValue
6.249

@<SCITEGIC>MOL_PROPERTY
Valence
SciTegic.value.DoubleValue
159.364

@<SCITEGIC>MOL_PROPERTY
Coulomb
SciTegic.value.DoubleValue
140.298

@<SCITEGIC>MOL_PROPERTY
VdW
SciTegic.value.DoubleValue
-26.114

@<SCITEGIC>MOL_PROPERTY
VdW6
SciTegic.value.DoubleValue
-181.459

@<SCITEGIC>MOL_PROPERTY
VdW12
SciTegic.value.DoubleValue
155.344

@<SCITEGIC>MOL_PROPERTY
Bond
SciTegic.value.DoubleValue
4.313

@<SCITEGIC>MOL_PROPERTY
Angle
SciTegic.value.DoubleValue
13.752

@<SCITEGIC>MOL_PROPERTY
Pdih
SciTegic.value.DoubleValue
141.298

@<SCITEGIC>MOL_PROPERTY
Idih
SciTegic.value.DoubleValue
0.000

@<SCITEGIC>MOL_PROPERTY
Tether
SciTegic.value.DoubleValue
0.000

