@<TRIPOS>MOLECULE
CD_guest-2_vm2_rndm.mol2 : vm2 host+ligand conformer 1
         149         154           2
SMALL
USER_CHARGES
 
@<TRIPOS>ATOM
       1    C1      16.427417   15.416566   21.753010 C.3        1 MOL1         0.2972
       2    H1      15.378926   15.273594   22.043052 H          1 MOL1         0.0751
       3    O1      16.632443   16.694487   21.117880 O.3        1 MOL1        -0.3740
       4    C2      17.350896   15.317313   22.996309 C.3        1 MOL1         0.1003
       5    H2      17.193569   14.323327   23.435005 H          1 MOL1         0.0783
       6    O2      17.035552   16.319430   23.976522 O.3        1 MOL1        -0.5519
       7    H3      16.096528   16.584674   23.827394 H          1 MOL1         0.3769
       8    C3      18.838305   15.436261   22.593046 C.3        1 MOL1         0.1053
       9    H4      19.008484   16.456357   22.229999 H          1 MOL1         0.0783
      10    O3      19.647713   15.192255   23.746684 O.3        1 MOL1        -0.5519
      11    H5      19.224776   15.724421   24.458133 H          1 MOL1         0.3769
      12    C4      19.201994   14.454050   21.451824 C.3        1 MOL1         0.1018
      13    H6      19.251476   13.437007   21.862804 H          1 MOL1         0.0783
      14    C5      18.169456   14.501939   20.291828 C.3        1 MOL1         0.1043
      15    H7      18.279740   15.461574   19.769342 H          1 MOL1         0.0783
      16    O4      16.825826   14.386824   20.822468 O.3        1 MOL1        -0.3740
      17    C6      18.364164   13.376533   19.251264 C.3        1 MOL1         0.0138
      18    H8      19.333634   13.513306   18.753911 H          1 MOL1         0.0794
      19    H9      17.586533   13.468548   18.481230 H          1 MOL1         0.0794
      20    O5      18.304190   12.086328   19.866324 O.3        1 MOL1        -0.5486
      21    H10     17.429081   12.033366   20.311212 H          1 MOL1         0.3769
      22    C7      14.666422   20.328839   20.779457 C.3        1 MOL1         0.2972
      23    H11     13.987462   21.162507   20.557833 H          1 MOL1         0.0751
      24    O6      15.962897   20.789572   21.204713 O.3        1 MOL1        -0.3740
      25    C8      14.091495   19.413576   21.888721 C.3        1 MOL1         0.1003
      26    H12     13.149871   18.995713   21.509268 H          1 MOL1         0.0783
      27    O7      13.823702   20.148776   23.093211 O.3        1 MOL1        -0.5519
      28    H13     14.657626   20.619386   23.347909 H          1 MOL1         0.3769
      29    C9      15.054973   18.235145   22.176620 C.3        1 MOL1         0.1053
      30    H14     15.968984   18.646468   22.627402 H          1 MOL1         0.0783
      31    O8      14.418615   17.345704   23.100953 O.3        1 MOL1        -0.5519
      32    H15     13.956466   17.934653   23.740634 H          1 MOL1         0.3769
      33    C10     15.454672   17.490104   20.868237 C.3        1 MOL1         0.1018
      34    H16     14.618553   16.865441   20.526621 H          1 MOL1         0.0783
      35    C11     15.846506   18.466253   19.726693 C.3        1 MOL1         0.1043
      36    H17     16.822551   18.906350   19.962061 H          1 MOL1         0.0783
      37    O9      14.849716   19.509729   19.605791 O.3        1 MOL1        -0.3740
      38    C12     15.960111   17.754706   18.362179 C.3        1 MOL1         0.0138
      39    H18     14.961629   17.438820   18.031514 H          1 MOL1         0.0794
      40    H19     16.575264   16.852005   18.474287 H          1 MOL1         0.0794
      41    O10     16.558393   18.629452   17.403137 O.3        1 MOL1        -0.5486
      42    H20     16.007203   19.442224   17.390177 H          1 MOL1         0.3769
      43    C13     18.323895   24.013253   21.958534 C.3        1 MOL1         0.2972
      44    H21     18.807682   24.974477   22.175409 H          1 MOL1         0.0751
      45    O11     19.276658   23.022080   21.517701 O.3        1 MOL1        -0.3740
      46    C14     17.593384   23.488687   23.219381 C.3        1 MOL1         0.1003
      47    H22     16.811213   24.216750   23.470994 H          1 MOL1         0.0783
      48    O12     18.494924   23.360659   24.330375 O.3        1 MOL1        -0.5519
      49    H23     19.396101   23.604176   24.003789 H          1 MOL1         0.3769
      50    C15     16.912583   22.132675   22.930160 C.3        1 MOL1         0.1053
      51    H24     17.707387   21.390511   22.806318 H          1 MOL1         0.0783
      52    O13     16.095609   21.760103   24.043532 O.3        1 MOL1        -0.5519
      53    H25     16.658569   21.926030   24.832919 H          1 MOL1         0.3769
      54    C16     16.060523   22.158983   21.634059 C.3        1 MOL1         0.1018
      55    H26     15.078165   22.589672   21.869895 H          1 MOL1         0.0783
      56    C17     16.721743   22.936306   20.458788 C.3        1 MOL1         0.1043
      57    H27     17.494829   22.291022   20.022195 H          1 MOL1         0.0783
      58    O14     17.329176   24.166719   20.926064 O.3        1 MOL1        -0.3740
      59    C18     15.732838   23.296397   19.328056 C.3        1 MOL1         0.0138
      60    H28     15.352271   22.370966   18.876008 H          1 MOL1         0.0794
      61    H29     16.275506   23.842399   18.544739 H          1 MOL1         0.0794
      62    O15     14.647813   24.086227   19.822742 O.3        1 MOL1        -0.5486
      63    H30     15.051442   24.882581   20.234562 H          1 MOL1         0.3769
      64    C19     23.366713   22.612536   20.819911 C.3        1 MOL1         0.2972
      65    H31     24.410248   22.771499   20.519142 H          1 MOL1         0.0751
      66    O16     23.120776   21.231333   21.150576 O.3        1 MOL1        -0.3740
      67    C20     22.988897   23.521757   22.022615 C.3        1 MOL1         0.1003
      68    H32     23.133235   24.559591   21.695207 H          1 MOL1         0.0783
      69    O17     23.821524   23.279776   23.166769 O.3        1 MOL1        -0.5519
      70    H33     23.666820   22.341519   23.444712 H          1 MOL1         0.3769
      71    C21     21.498097   23.348757   22.400286 C.3        1 MOL1         0.1053
      72    H34     21.362225   22.330828   22.790862 H          1 MOL1         0.0783
      73    O18     21.153648   24.305736   23.407389 O.3        1 MOL1        -0.5519
      74    H35     21.918168   24.310683   24.026999 H          1 MOL1         0.3769
      75    C22     20.581161   23.516835   21.160652 C.3        1 MOL1         0.1018
      76    H36     20.546311   24.573617   20.863424 H          1 MOL1         0.0783
      77    C23     21.076971   22.680161   19.952677 C.3        1 MOL1         0.1043
      78    H37     20.917567   21.617157   20.169418 H          1 MOL1         0.0783
      79    O19     22.483640   22.952304   19.730371 O.3        1 MOL1        -0.3740
      80    C24     20.329213   23.025695   18.648527 C.3        1 MOL1         0.0138
      81    H38     20.558888   24.060460   18.361247 H          1 MOL1         0.0794
      82    H39     19.247804   22.960147   18.818617 H          1 MOL1         0.0794
      83    O20     20.713547   22.118737   17.613366 O.3        1 MOL1        -0.5486
      84    H40     21.693595   22.159447   17.568270 H          1 MOL1         0.3769
      85    C25     24.965733   17.656735   22.054528 C.3        1 MOL1         0.2972
      86    H41     25.630788   16.832801   22.343976 H          1 MOL1         0.0751
      87    O21     23.758041   17.178221   21.429126 O.3        1 MOL1        -0.3740
      88    C26     24.588775   18.512329   23.291434 C.3        1 MOL1         0.1003
      89    H42     25.517581   18.947874   23.682395 H          1 MOL1         0.0783
      90    O22     23.969056   17.726233   24.321607 O.3        1 MOL1        -0.5519
      91    H43     23.944792   16.790203   24.005170 H          1 MOL1         0.3769
      92    C27     23.651725   19.668769   22.880208 C.3        1 MOL1         0.1053
      93    H44     22.703197   19.223507   22.556781 H          1 MOL1         0.0783
      94    O23     23.429161   20.518915   24.009590 O.3        1 MOL1        -0.5519
      95    H45     23.255020   19.898859   24.753372 H          1 MOL1         0.3769
      96    C28     24.227446   20.488044   21.698411 C.3        1 MOL1         0.1018
      97    H46     25.017480   21.147494   22.081280 H          1 MOL1         0.0783
      98    C29     24.794534   19.589909   20.560680 C.3        1 MOL1         0.1043
      99    H47     23.948432   19.145507   20.020140 H          1 MOL1         0.0783
     100    O24     25.622654   18.536292   21.116861 O.3        1 MOL1        -0.3740
     101    C30     25.645459   20.362559   19.528432 C.3        1 MOL1         0.0138
     102    H48     25.002715   21.076714   18.997065 H          1 MOL1         0.0794
     103    H49     26.027577   19.651885   18.783313 H          1 MOL1         0.0794
     104    O25     26.729318   21.049774   20.159904 O.3        1 MOL1        -0.5486
     105    H50     27.255801   20.364225   20.628262 H          1 MOL1         0.3769
     106    C31     21.474654   13.858338   20.728716 C.3        1 MOL1         0.2972
     107    H51     21.023359   12.893561   20.463080 H          1 MOL1         0.0751
     108    O26     20.468830   14.879872   20.910594 O.3        1 MOL1        -0.3740
     109    C32     22.353041   13.735652   22.002378 C.3        1 MOL1         0.1003
     110    H52     23.178844   13.054974   21.757299 H          1 MOL1         0.0783
     111    O27     21.625687   13.194113   23.114407 O.3        1 MOL1        -0.5519
     112    H53     20.931325   13.859208   23.352019 H          1 MOL1         0.3769
     113    C33     22.963479   15.108103   22.372059 C.3        1 MOL1         0.1053
     114    H54     22.142820   15.770939   22.680479 H          1 MOL1         0.0783
     115    O28     23.880286   14.936102   23.457347 O.3        1 MOL1        -0.5519
     116    H55     23.441694   14.297082   24.064002 H          1 MOL1         0.3769
     117    C34     23.683174   15.765015   21.163176 C.3        1 MOL1         0.1018
     118    H56     24.679564   15.320444   21.038558 H          1 MOL1         0.0783
     119    C35     22.899331   15.629753   19.828271 C.3        1 MOL1         0.1043
     120    H57     22.079277   16.355907   19.842341 H          1 MOL1         0.0783
     121    O29     22.354670   14.295828   19.673662 O.3        1 MOL1        -0.3740
     122    C36     23.770798   15.933512   18.589747 C.3        1 MOL1         0.0138
     123    H58     24.173216   16.951792   18.675512 H          1 MOL1         0.0794
     124    H59     23.135978   15.902577   17.694380 H          1 MOL1         0.0794
     125    O30     24.839357   14.990376   18.470461 O.3        1 MOL1        -0.5486
     126    H60     24.420636   14.100745   18.478534 H          1 MOL1         0.3769
     127    N1      21.072938   18.542070   15.611413 N.4        1 MOL1        -0.5940
     128    H1      20.641161   18.720430   14.698680 H          1 MOL1         0.3649
     129    H2      21.382958   17.565730   15.610860 H          1 MOL1         0.3649
     130    H3      21.909579   19.131296   15.664908 H          1 MOL1         0.3649
     131    C1      20.112240   18.831718   16.746382 C.3        1 MOL1         0.0207
     132    H4      19.226089   18.204103   16.613757 H          1 MOL1         0.0950
     133    H5      19.804257   19.878639   16.668077 H          1 MOL1         0.0950
     134    C2      20.722997   18.581522   18.135859 C.3        1 MOL1        -0.1415
     135    H6      21.049971   17.537831   18.210453 H          1 MOL1         0.0976
     136    H7      21.608348   19.218448   18.265245 H          1 MOL1         0.0976
     137    C3      19.695339   18.887356   19.243196 C.3        1 MOL1        -0.1375
     138    H8      18.847510   18.196279   19.149673 H          1 MOL1         0.0976
     139    H9      19.297450   19.900568   19.088441 H          1 MOL1         0.0976
     140    C4      20.293085   18.780918   20.663699 C.3        1 MOL1        -0.1375
     141    H10     21.207211   19.384373   20.725683 H          1 MOL1         0.0976
     142    H11     20.581779   17.743399   20.876489 H          1 MOL1         0.0976
     143    C5      19.281663   19.269637   21.721160 C.3        1 MOL1        -0.1350
     144    H12     18.385425   18.637176   21.699678 H          1 MOL1         0.0976
     145    H13     18.956712   20.284108   21.460272 H          1 MOL1         0.0976
     146    C6      19.867347   19.270819   23.147691 C.3        1 MOL1        -0.2365
     147    H14     19.091486   19.522350   23.882429 H          1 MOL1         0.0987
     148    H15     20.667240   20.014935   23.242919 H          1 MOL1         0.0987
     149    H16     20.275655   18.286688   23.412874 H          1 MOL1         0.0987
@<TRIPOS>BOND
    1     1     2    1
    2     1     3    1
    3     1     4    1
    4     4     5    1
    5     4     6    1
    6     6     7    1
    7     4     8    1
    8     8     9    1
    9     8    10    1
   10    10    11    1
   11     8    12    1
   12    12    13    1
   13    12    14    1
   14    14    15    1
   15     1    16    1
   16    14    16    1
   17    14    17    1
   18    17    18    1
   19    17    19    1
   20    17    20    1
   21    20    21    1
   22    22    23    1
   23    22    24    1
   24    22    25    1
   25    25    26    1
   26    25    27    1
   27    27    28    1
   28    25    29    1
   29    29    30    1
   30    29    31    1
   31    31    32    1
   32     3    33    1
   33    29    33    1
   34    33    34    1
   35    33    35    1
   36    35    36    1
   37    22    37    1
   38    35    37    1
   39    35    38    1
   40    38    39    1
   41    38    40    1
   42    38    41    1
   43    41    42    1
   44    43    44    1
   45    43    45    1
   46    43    46    1
   47    46    47    1
   48    46    48    1
   49    48    49    1
   50    46    50    1
   51    50    51    1
   52    50    52    1
   53    52    53    1
   54    24    54    1
   55    50    54    1
   56    54    55    1
   57    54    56    1
   58    56    57    1
   59    43    58    1
   60    56    58    1
   61    56    59    1
   62    59    60    1
   63    59    61    1
   64    59    62    1
   65    62    63    1
   66    64    65    1
   67    64    66    1
   68    64    67    1
   69    67    68    1
   70    67    69    1
   71    69    70    1
   72    67    71    1
   73    71    72    1
   74    71    73    1
   75    73    74    1
   76    45    75    1
   77    71    75    1
   78    75    76    1
   79    75    77    1
   80    77    78    1
   81    64    79    1
   82    77    79    1
   83    77    80    1
   84    80    81    1
   85    80    82    1
   86    80    83    1
   87    83    84    1
   88    85    86    1
   89    85    87    1
   90    85    88    1
   91    88    89    1
   92    88    90    1
   93    90    91    1
   94    88    92    1
   95    92    93    1
   96    92    94    1
   97    94    95    1
   98    66    96    1
   99    92    96    1
  100    96    97    1
  101    96    98    1
  102    98    99    1
  103    85   100    1
  104    98   100    1
  105    98   101    1
  106   101   102    1
  107   101   103    1
  108   101   104    1
  109   104   105    1
  110   106   107    1
  111    12   108    1
  112   106   108    1
  113   106   109    1
  114   109   110    1
  115   109   111    1
  116   111   112    1
  117   109   113    1
  118   113   114    1
  119   113   115    1
  120   115   116    1
  121    87   117    1
  122   113   117    1
  123   117   118    1
  124   117   119    1
  125   119   120    1
  126   106   121    1
  127   119   121    1
  128   119   122    1
  129   122   123    1
  130   122   124    1
  131   122   125    1
  132   125   126    1
  133   127   128    1
  134   127   129    1
  135   127   130    1
  136   127   131    1
  137   131   132    1
  138   131   133    1
  139   131   134    1
  140   134   135    1
  141   134   136    1
  142   134   137    1
  143   137   138    1
  144   137   139    1
  145   137   140    1
  146   140   141    1
  147   140   142    1
  148   140   143    1
  149   143   144    1
  150   143   145    1
  151   143   146    1
  152   146   147    1
  153   146   148    1
  154   146   149    1
@<TRIPOS>SUBSTRUCTURE
       1 MOL1            1 RESIDUE      1      MOL     
       2 MOL1          149 RESIDUE      1      MOL     
@<SCITEGIC>MOL_PROPERTY
VM2 Rank
SciTegic.value.IntegerValue
1

@<SCITEGIC>MOL_PROPERTY
Conf_Id
SciTegic.value.IntegerValue
22927

@<SCITEGIC>MOL_PROPERTY
Probability
SciTegic.value.DoubleValue
1.98

@<SCITEGIC>MOL_PROPERTY
Sum Probability
SciTegic.value.DoubleValue
1.98

@<SCITEGIC>MOL_PROPERTY
Delta G
SciTegic.value.DoubleValue
0.000

@<SCITEGIC>MOL_PROPERTY
G
SciTegic.value.DoubleValue
557.081

@<SCITEGIC>MOL_PROPERTY
E
SciTegic.value.DoubleValue
360.326

@<SCITEGIC>MOL_PROPERTY
-TS
SciTegic.value.DoubleValue
196.755

@<SCITEGIC>MOL_PROPERTY
U+W
SciTegic.value.DoubleValue
228.873

@<SCITEGIC>MOL_PROPERTY
U
SciTegic.value.DoubleValue
307.716

@<SCITEGIC>MOL_PROPERTY
W
SciTegic.value.DoubleValue
-78.843

@<SCITEGIC>MOL_PROPERTY
W(PB)
SciTegic.value.DoubleValue
-84.895

@<SCITEGIC>MOL_PROPERTY
W(SA)
SciTegic.value.DoubleValue
6.051

@<SCITEGIC>MOL_PROPERTY
Valence
SciTegic.value.DoubleValue
145.769

@<SCITEGIC>MOL_PROPERTY
Coulomb
SciTegic.value.DoubleValue
186.915

@<SCITEGIC>MOL_PROPERTY
VdW
SciTegic.value.DoubleValue
-24.968

@<SCITEGIC>MOL_PROPERTY
VdW6
SciTegic.value.DoubleValue
-174.317

@<SCITEGIC>MOL_PROPERTY
VdW12
SciTegic.value.DoubleValue
149.349

@<SCITEGIC>MOL_PROPERTY
Bond
SciTegic.value.DoubleValue
4.368

@<SCITEGIC>MOL_PROPERTY
Angle
SciTegic.value.DoubleValue
10.183

@<SCITEGIC>MOL_PROPERTY
Pdih
SciTegic.value.DoubleValue
131.217

@<SCITEGIC>MOL_PROPERTY
Idih
SciTegic.value.DoubleValue
0.000

@<SCITEGIC>MOL_PROPERTY
Tether
SciTegic.value.DoubleValue
0.000

