@<TRIPOS>MOLECULE
CD_guest-7_vm2_rndm.mol2 : vm2 host+ligand conformer 1
         145         150           2
SMALL
USER_CHARGES
 
@<TRIPOS>ATOM
       1    C1      16.191295   15.292064   21.721360 C.3        1 MOL1         0.2972
       2    H1      15.121446   15.120992   21.895741 H          1 MOL1         0.0751
       3    O1      16.442917   16.614030   21.206235 O.3        1 MOL1        -0.3740
       4    C2      16.985732   15.098974   23.036861 C.3        1 MOL1         0.1003
       5    H2      16.836971   14.059235   23.356170 H          1 MOL1         0.0783
       6    O2      16.521032   15.973795   24.073233 O.3        1 MOL1        -0.5519
       7    H3      17.221538   15.928745   24.762670 H          1 MOL1         0.3769
       8    C3      18.499207   15.306652   22.805145 C.3        1 MOL1         0.1053
       9    H4      18.672452   16.362774   22.557787 H          1 MOL1         0.0783
      10    O3      19.204231   14.952341   24.000364 O.3        1 MOL1        -0.5519
      11    H5      20.103469   14.657306   23.719877 H          1 MOL1         0.3769
      12    C4      19.013426   14.446809   21.625051 C.3        1 MOL1         0.1018
      13    H6      19.088140   13.403643   21.961041 H          1 MOL1         0.0783
      14    C5      18.091728   14.538698   20.374591 C.3        1 MOL1         0.1043
      15    H7      18.214082   15.535045   19.929478 H          1 MOL1         0.0783
      16    O4      16.706806   14.344065   20.761740 O.3        1 MOL1        -0.3740
      17    C6      18.423382   13.497767   19.282199 C.3        1 MOL1         0.0138
      18    H8      19.424980   13.704145   18.882334 H          1 MOL1         0.0794
      19    H9      17.712106   13.617076   18.453980 H          1 MOL1         0.0794
      20    O5      18.362692   12.165792   19.800722 O.3        1 MOL1        -0.5486
      21    H10     17.455823   12.052610   20.163012 H          1 MOL1         0.3769
      22    C7      14.655051   20.239144   20.494744 C.3        1 MOL1         0.2972
      23    H11     14.045735   21.102160   20.196939 H          1 MOL1         0.0751
      24    O6      15.989355   20.636837   20.877401 O.3        1 MOL1        -0.3740
      25    C8      13.989231   19.451939   21.653428 C.3        1 MOL1         0.1003
      26    H12     13.049514   19.038454   21.265559 H          1 MOL1         0.0783
      27    O7      13.685467   20.316416   22.758330 O.3        1 MOL1        -0.5519
      28    H13     14.549706   20.577342   23.163057 H          1 MOL1         0.3769
      29    C9      14.892142   18.260566   22.073227 C.3        1 MOL1         0.1053
      30    H14     15.810930   18.669286   22.516631 H          1 MOL1         0.0783
      31    O8      14.219341   17.436930   23.032649 O.3        1 MOL1        -0.5519
      32    H15     14.928288   16.926733   23.496171 H          1 MOL1         0.3769
      33    C10     15.289449   17.394986   20.842679 C.3        1 MOL1         0.1018
      34    H16     14.443515   16.755238   20.557678 H          1 MOL1         0.0783
      35    C11     15.710896   18.227921   19.601719 C.3        1 MOL1         0.1043
      36    H17     16.721296   18.621879   19.764692 H          1 MOL1         0.0783
      37    O9      14.776373   19.315927   19.393425 O.3        1 MOL1        -0.3740
      38    C12     15.731661   17.372576   18.318001 C.3        1 MOL1         0.0138
      39    H18     14.715947   17.013076   18.105739 H          1 MOL1         0.0794
      40    H19     16.371004   16.494316   18.479319 H          1 MOL1         0.0794
      41    O10     16.229149   18.143936   17.223118 O.3        1 MOL1        -0.5486
      42    H20     15.725489   18.988156   17.235841 H          1 MOL1         0.3769
      43    C13     18.378623   23.789010   21.997211 C.3        1 MOL1         0.2972
      44    H21     18.816148   24.741606   22.320877 H          1 MOL1         0.0751
      45    O11     19.382257   22.892627   21.472658 O.3        1 MOL1        -0.3740
      46    C14     17.671689   23.094747   23.187488 C.3        1 MOL1         0.1003
      47    H22     16.864401   23.758222   23.523380 H          1 MOL1         0.0783
      48    O12     18.606440   22.912381   24.265237 O.3        1 MOL1        -0.5519
      49    H23     18.339534   22.102787   24.773903 H          1 MOL1         0.3769
      50    C15     17.025364   21.758235   22.735131 C.3        1 MOL1         0.1053
      51    H24     17.828484   21.049521   22.497547 H          1 MOL1         0.0783
      52    O13     16.204690   21.232873   23.785841 O.3        1 MOL1        -0.5519
      53    H25     16.819441   20.901734   24.491871 H          1 MOL1         0.3769
      54    C16     16.153872   21.942682   21.462029 C.3        1 MOL1         0.1018
      55    H26     15.192353   22.385118   21.754355 H          1 MOL1         0.0783
      56    C17     16.831591   22.823290   20.375650 C.3        1 MOL1         0.1043
      57    H27     17.632919   22.234493   19.910920 H          1 MOL1         0.0783
      58    O14     17.389784   24.017575   20.972828 O.3        1 MOL1        -0.3740
      59    C18     15.868565   23.263561   19.250739 C.3        1 MOL1         0.0138
      60    H28     15.521329   22.374154   18.708464 H          1 MOL1         0.0794
      61    H29     16.423541   23.885658   18.535683 H          1 MOL1         0.0794
      62    O15     14.752686   23.987542   19.777281 O.3        1 MOL1        -0.5486
      63    H30     15.128965   24.744978   20.278614 H          1 MOL1         0.3769
      64    C19     23.542654   22.720023   21.114763 C.3        1 MOL1         0.2972
      65    H31     24.593677   22.941088   20.888864 H          1 MOL1         0.0751
      66    O16     23.359156   21.349643   21.515046 O.3        1 MOL1        -0.3740
      67    C20     23.022879   23.630235   22.257005 C.3        1 MOL1         0.1003
      68    H32     23.127945   24.670709   21.923249 H          1 MOL1         0.0783
      69    O17     23.779232   23.440076   23.461213 O.3        1 MOL1        -0.5519
      70    H33     23.283430   23.944322   24.145190 H          1 MOL1         0.3769
      71    C21     21.523675   23.366605   22.536619 C.3        1 MOL1         0.1053
      72    H34     21.430526   22.347174   22.933729 H          1 MOL1         0.0783
      73    O18     21.056773   24.306466   23.511882 O.3        1 MOL1        -0.5519
      74    H35     20.227452   23.915677   23.885448 H          1 MOL1         0.3769
      75    C22     20.686677   23.454643   21.229260 C.3        1 MOL1         0.1018
      76    H36     20.613792   24.500340   20.902353 H          1 MOL1         0.0783
      77    C23     21.321905   22.613471   20.089278 C.3        1 MOL1         0.1043
      78    H37     21.218504   21.549298   20.341036 H          1 MOL1         0.0783
      79    O19     22.723288   22.956181   19.950665 O.3        1 MOL1        -0.3740
      80    C24     20.650164   22.841636   18.717043 C.3        1 MOL1         0.0138
      81    H38     19.590229   22.565867   18.784906 H          1 MOL1         0.0794
      82    H39     21.116479   22.172138   17.982087 H          1 MOL1         0.0794
      83    O20     20.780855   24.203812   18.299485 O.3        1 MOL1        -0.5486
      84    H40     21.740765   24.410383   18.347380 H          1 MOL1         0.3769
      85    C25     25.191520   17.684849   21.739127 C.3        1 MOL1         0.2972
      86    H41     25.863699   16.819371   21.794892 H          1 MOL1         0.0751
      87    O21     23.816256   17.288109   21.566762 O.3        1 MOL1        -0.3740
      88    C26     25.306572   18.531914   23.029729 C.3        1 MOL1         0.1003
      89    H42     26.338064   18.902881   23.089228 H          1 MOL1         0.0783
      90    O22     25.018999   17.749949   24.196915 O.3        1 MOL1        -0.5519
      91    H43     24.928486   18.410686   24.920174 H          1 MOL1         0.3769
      92    C27     24.364102   19.754415   22.964952 C.3        1 MOL1         0.1053
      93    H44     23.330553   19.387127   22.998425 H          1 MOL1         0.0783
      94    O23     24.613894   20.613878   24.083749 O.3        1 MOL1        -0.5519
      95    H45     24.169164   21.473828   23.882695 H          1 MOL1         0.3769
      96    C28     24.549683   20.554093   21.651850 C.3        1 MOL1         0.1018
      97    H46     25.451253   21.173682   21.748019 H          1 MOL1         0.0783
      98    C29     24.653484   19.652788   20.388041 C.3        1 MOL1         0.1043
      99    H47     23.649920   19.272814   20.154669 H          1 MOL1         0.0783
     100    O24     25.550540   18.540084   20.633678 O.3        1 MOL1        -0.3740
     101    C30     25.170423   20.402053   19.139855 C.3        1 MOL1         0.0138
     102    H48     24.452112   21.186005   18.866878 H          1 MOL1         0.0794
     103    H49     25.217370   19.696342   18.299685 H          1 MOL1         0.0794
     104    O25     26.459583   20.974450   19.378910 O.3        1 MOL1        -0.5486
     105    H50     27.043282   20.231080   19.649718 H          1 MOL1         0.3769
     106    C31     21.331748   14.023821   20.961484 C.3        1 MOL1         0.2972
     107    H51     20.905581   13.046674   20.700154 H          1 MOL1         0.0751
     108    O26     20.300332   14.984829   21.263242 O.3        1 MOL1        -0.3740
     109    C32     22.292742   13.901303   22.174400 C.3        1 MOL1         0.1003
     110    H52     23.093905   13.208684   21.885292 H          1 MOL1         0.0783
     111    O27     21.625724   13.387476   23.334135 O.3        1 MOL1        -0.5519
     112    H53     22.293170   13.451548   24.054134 H          1 MOL1         0.3769
     113    C33     22.943090   15.264436   22.508334 C.3        1 MOL1         0.1053
     114    H54     22.155682   15.939323   22.872249 H          1 MOL1         0.0783
     115    O28     23.937024   15.083881   23.524551 O.3        1 MOL1        -0.5519
     116    H55     24.257860   15.987971   23.768601 H          1 MOL1         0.3769
     117    C34     23.583705   15.904022   21.251218 C.3        1 MOL1         0.1018
     118    H56     24.512758   15.374046   21.002809 H          1 MOL1         0.0783
     119    C35     22.638116   15.870467   20.022016 C.3        1 MOL1         0.1043
     120    H57     21.824937   16.586316   20.192773 H          1 MOL1         0.0783
     121    O29     22.096941   14.536688   19.850997 O.3        1 MOL1        -0.3740
     122    C36     23.345291   16.259872   18.705224 C.3        1 MOL1         0.0138
     123    H58     23.754149   17.273775   18.802010 H          1 MOL1         0.0794
     124    H59     22.600319   16.280783   17.898669 H          1 MOL1         0.0794
     125    O30     24.390852   15.335145   18.391257 O.3        1 MOL1        -0.5486
     126    H60     23.976347   14.443701   18.403578 H          1 MOL1         0.3769
     127    C1      18.957215   19.476147   25.466737 C.2        1 MOL1         0.6115
     128    O1      19.548450   19.033613   26.431502 O.co2      1 MOL1        -0.6776
     129    O2      18.205322   20.432100   25.513382 O.co2      1 MOL1        -0.6776
     130    C2      19.182032   18.812278   24.112135 C.3        1 MOL1        -0.2013
     131    H1      18.225416   18.804229   23.578571 H          1 MOL1         0.0727
     132    H2      19.462272   17.768767   24.293688 H          1 MOL1         0.0727
     133    C3      20.281018   19.514075   23.272868 C.3        1 MOL1        -0.1910
     134    H3      20.018131   20.569315   23.130206 H          1 MOL1         0.0729
     135    H4      21.213635   19.504529   23.851694 H          1 MOL1         0.0729
     136    C4      20.531549   18.848564   21.898780 C.3        1 MOL1        -0.1909
     137    H5      20.706725   17.773723   22.036331 H          1 MOL1         0.0729
     138    H6      21.453503   19.262334   21.471124 H          1 MOL1         0.0729
     139    C5      19.376296   19.071706   20.898411 C.3        1 MOL1        -0.1884
     140    H7      18.451248   18.631422   21.290571 H          1 MOL1         0.0729
     141    H8      19.192728   20.147604   20.781520 H          1 MOL1         0.0729
     142    C6      19.687870   18.458417   19.518731 C.3        1 MOL1        -0.2899
     143    H9      18.889157   18.688924   18.802317 H          1 MOL1         0.0741
     144    H10     20.628645   18.854176   19.115481 H          1 MOL1         0.0741
     145    H11     19.771380   17.367232   19.588360 H          1 MOL1         0.0741
@<TRIPOS>BOND
    1     1     2    1
    2     1     3    1
    3     1     4    1
    4     4     5    1
    5     4     6    1
    6     6     7    1
    7     4     8    1
    8     8     9    1
    9     8    10    1
   10    10    11    1
   11     8    12    1
   12    12    13    1
   13    12    14    1
   14    14    15    1
   15     1    16    1
   16    14    16    1
   17    14    17    1
   18    17    18    1
   19    17    19    1
   20    17    20    1
   21    20    21    1
   22    22    23    1
   23    22    24    1
   24    22    25    1
   25    25    26    1
   26    25    27    1
   27    27    28    1
   28    25    29    1
   29    29    30    1
   30    29    31    1
   31    31    32    1
   32     3    33    1
   33    29    33    1
   34    33    34    1
   35    33    35    1
   36    35    36    1
   37    22    37    1
   38    35    37    1
   39    35    38    1
   40    38    39    1
   41    38    40    1
   42    38    41    1
   43    41    42    1
   44    43    44    1
   45    43    45    1
   46    43    46    1
   47    46    47    1
   48    46    48    1
   49    48    49    1
   50    46    50    1
   51    50    51    1
   52    50    52    1
   53    52    53    1
   54    24    54    1
   55    50    54    1
   56    54    55    1
   57    54    56    1
   58    56    57    1
   59    43    58    1
   60    56    58    1
   61    56    59    1
   62    59    60    1
   63    59    61    1
   64    59    62    1
   65    62    63    1
   66    64    65    1
   67    64    66    1
   68    64    67    1
   69    67    68    1
   70    67    69    1
   71    69    70    1
   72    67    71    1
   73    71    72    1
   74    71    73    1
   75    73    74    1
   76    45    75    1
   77    71    75    1
   78    75    76    1
   79    75    77    1
   80    77    78    1
   81    64    79    1
   82    77    79    1
   83    77    80    1
   84    80    81    1
   85    80    82    1
   86    80    83    1
   87    83    84    1
   88    85    86    1
   89    85    87    1
   90    85    88    1
   91    88    89    1
   92    88    90    1
   93    90    91    1
   94    88    92    1
   95    92    93    1
   96    92    94    1
   97    94    95    1
   98    66    96    1
   99    92    96    1
  100    96    97    1
  101    96    98    1
  102    98    99    1
  103    85   100    1
  104    98   100    1
  105    98   101    1
  106   101   102    1
  107   101   103    1
  108   101   104    1
  109   104   105    1
  110   106   107    1
  111    12   108    1
  112   106   108    1
  113   106   109    1
  114   109   110    1
  115   109   111    1
  116   111   112    1
  117   109   113    1
  118   113   114    1
  119   113   115    1
  120   115   116    1
  121    87   117    1
  122   113   117    1
  123   117   118    1
  124   117   119    1
  125   119   120    1
  126   106   121    1
  127   119   121    1
  128   119   122    1
  129   122   123    1
  130   122   124    1
  131   122   125    1
  132   125   126    1
  133   127   128    1
  134   127   129    2
  135   127   130    1
  136   130   131    1
  137   130   132    1
  138   130   133    1
  139   133   134    1
  140   133   135    1
  141   133   136    1
  142   136   137    1
  143   136   138    1
  144   136   139    1
  145   139   140    1
  146   139   141    1
  147   139   142    1
  148   142   143    1
  149   142   144    1
  150   142   145    1
@<TRIPOS>SUBSTRUCTURE
       1 MOL1            1 RESIDUE      1      MOL     
       2 MOL1          145 RESIDUE      1      MOL     
@<SCITEGIC>MOL_PROPERTY
VM2 Rank
SciTegic.value.IntegerValue
1

@<SCITEGIC>MOL_PROPERTY
Conf_Id
SciTegic.value.IntegerValue
26061

@<SCITEGIC>MOL_PROPERTY
Probability
SciTegic.value.DoubleValue
4.31

@<SCITEGIC>MOL_PROPERTY
Sum Probability
SciTegic.value.DoubleValue
4.31

@<SCITEGIC>MOL_PROPERTY
Delta G
SciTegic.value.DoubleValue
0.000

@<SCITEGIC>MOL_PROPERTY
G
SciTegic.value.DoubleValue
488.790

@<SCITEGIC>MOL_PROPERTY
E
SciTegic.value.DoubleValue
301.578

@<SCITEGIC>MOL_PROPERTY
-TS
SciTegic.value.DoubleValue
187.212

@<SCITEGIC>MOL_PROPERTY
U+W
SciTegic.value.DoubleValue
173.702

@<SCITEGIC>MOL_PROPERTY
U
SciTegic.value.DoubleValue
248.110

@<SCITEGIC>MOL_PROPERTY
W
SciTegic.value.DoubleValue
-74.408

@<SCITEGIC>MOL_PROPERTY
W(PB)
SciTegic.value.DoubleValue
-80.556

@<SCITEGIC>MOL_PROPERTY
W(SA)
SciTegic.value.DoubleValue
6.148

@<SCITEGIC>MOL_PROPERTY
Valence
SciTegic.value.DoubleValue
149.400

@<SCITEGIC>MOL_PROPERTY
Coulomb
SciTegic.value.DoubleValue
123.107

@<SCITEGIC>MOL_PROPERTY
VdW
SciTegic.value.DoubleValue
-24.397

@<SCITEGIC>MOL_PROPERTY
VdW6
SciTegic.value.DoubleValue
-178.512

@<SCITEGIC>MOL_PROPERTY
VdW12
SciTegic.value.DoubleValue
154.115

@<SCITEGIC>MOL_PROPERTY
Bond
SciTegic.value.DoubleValue
4.539

@<SCITEGIC>MOL_PROPERTY
Angle
SciTegic.value.DoubleValue
11.660

@<SCITEGIC>MOL_PROPERTY
Pdih
SciTegic.value.DoubleValue
133.201

@<SCITEGIC>MOL_PROPERTY
Idih
SciTegic.value.DoubleValue
0.001

@<SCITEGIC>MOL_PROPERTY
Tether
SciTegic.value.DoubleValue
0.000

@<TRIPOS>MOLECULE
CD_guest-7_vm2_rndm.mol2 : vm2 host+ligand conformer 2
         145         150           2
SMALL
USER_CHARGES
 
@<TRIPOS>ATOM
       1    C1      16.207142   15.314273   21.658677 C.3        1 MOL1         0.2972
       2    H1      15.135433   15.145694   21.823823 H          1 MOL1         0.0751
       3    O1      16.466150   16.636168   21.145813 O.3        1 MOL1        -0.3740
       4    C2      16.990206   15.119397   22.980768 C.3        1 MOL1         0.1003
       5    H2      16.836657   14.079869   23.298488 H          1 MOL1         0.0783
       6    O2      16.519248   15.994719   24.013926 O.3        1 MOL1        -0.5519
       7    H3      17.214139   15.947801   24.708873 H          1 MOL1         0.3769
       8    C3      18.506066   15.323705   22.761166 C.3        1 MOL1         0.1053
       9    H4      18.683258   16.379657   22.516062 H          1 MOL1         0.0783
      10    O3      19.201033   14.967021   23.961580 O.3        1 MOL1        -0.5519
      11    H5      20.101480   14.669520   23.687744 H          1 MOL1         0.3769
      12    C4      19.028817   14.464036   21.584552 C.3        1 MOL1         0.1018
      13    H6      19.102581   13.421086   21.921417 H          1 MOL1         0.0783
      14    C5      18.115630   14.554172   20.327897 C.3        1 MOL1         0.1043
      15    H7      18.241643   15.549372   19.881676 H          1 MOL1         0.0783
      16    O4      16.728651   14.362206   20.706483 O.3        1 MOL1        -0.3740
      17    C6      18.452463   13.510540   19.239662 C.3        1 MOL1         0.0138
      18    H8      19.455782   13.716096   18.843755 H          1 MOL1         0.0794
      19    H9      17.744603   13.627685   18.408148 H          1 MOL1         0.0794
      20    O5      18.389722   12.179786   19.761042 O.3        1 MOL1        -0.5486
      21    H10     17.480606   12.066909   20.117798 H          1 MOL1         0.3769
      22    C7      14.698680   20.271943   20.436481 C.3        1 MOL1         0.2972
      23    H11     14.096025   21.139912   20.139502 H          1 MOL1         0.0751
      24    O6      16.029655   20.662192   20.837609 O.3        1 MOL1        -0.3740
      25    C8      14.015834   19.477753   21.580860 C.3        1 MOL1         0.1003
      26    H12     13.079728   19.070003   21.178444 H          1 MOL1         0.0783
      27    O7      13.701773   20.336054   22.687851 O.3        1 MOL1        -0.5519
      28    H13     14.561922   20.589777   23.105694 H          1 MOL1         0.3769
      29    C9      14.909114   18.280583   22.004674 C.3        1 MOL1         0.1053
      30    H14     15.825855   18.684051   22.456950 H          1 MOL1         0.0783
      31    O8      14.225344   17.457975   22.957373 O.3        1 MOL1        -0.5519
      32    H15     14.928744   16.944314   23.425345 H          1 MOL1         0.3769
      33    C10     15.313915   17.417189   20.775215 C.3        1 MOL1         0.1018
      34    H16     14.470405   16.776722   20.485199 H          1 MOL1         0.0783
      35    C11     15.745141   18.256664   19.540564 C.3        1 MOL1         0.1043
      36    H17     16.753733   18.646220   19.722396 H          1 MOL1         0.0783
      37    O9      14.830811   19.360811   19.326955 O.3        1 MOL1        -0.3740
      38    C12     15.797362   17.425461   18.239861 C.3        1 MOL1         0.0138
      39    H18     16.496332   16.589620   18.377160 H          1 MOL1         0.0794
      40    H19     16.193121   18.057400   17.433693 H          1 MOL1         0.0794
      41    O10     14.500000   16.932514   17.892066 O.3        1 MOL1        -0.5486
      42    H20     13.908255   17.717502   17.871468 H          1 MOL1         0.3769
      43    C13     18.408693   23.805443   22.004108 C.3        1 MOL1         0.2972
      44    H21     18.843506   24.755319   22.339241 H          1 MOL1         0.0751
      45    O11     19.416997   22.912477   21.482600 O.3        1 MOL1        -0.3740
      46    C14     17.689444   23.102837   23.182082 C.3        1 MOL1         0.1003
      47    H22     16.879239   23.764361   23.514787 H          1 MOL1         0.0783
      48    O12     18.613293   22.911976   24.267662 O.3        1 MOL1        -0.5519
      49    H23     18.340656   22.098923   24.767701 H          1 MOL1         0.3769
      50    C15     17.046849   21.770076   22.713559 C.3        1 MOL1         0.1053
      51    H24     17.851798   21.062390   22.479404 H          1 MOL1         0.0783
      52    O13     16.214310   21.237785   23.751420 O.3        1 MOL1        -0.5519
      53    H25     16.821215   20.900422   24.461290 H          1 MOL1         0.3769
      54    C16     16.189031   21.964065   21.432840 C.3        1 MOL1         0.1018
      55    H26     15.224859   22.404927   21.718780 H          1 MOL1         0.0783
      56    C17     16.877651   22.852737   20.359914 C.3        1 MOL1         0.1043
      57    H27     17.683384   22.267340   19.898616 H          1 MOL1         0.0783
      58    O14     17.430241   24.042205   20.971680 O.3        1 MOL1        -0.3740
      59    C18     15.925926   23.302175   19.228983 C.3        1 MOL1         0.0138
      60    H28     15.584032   22.417256   18.676025 H          1 MOL1         0.0794
      61    H29     16.488044   23.929977   18.524568 H          1 MOL1         0.0794
      62    O15     14.804910   24.022075   19.750156 O.3        1 MOL1        -0.5486
      63    H30     15.176182   24.775651   20.260962 H          1 MOL1         0.3769
      64    C19     23.579940   22.737435   21.163691 C.3        1 MOL1         0.2972
      65    H31     24.633614   22.958210   20.950202 H          1 MOL1         0.0751
      66    O16     23.389532   21.363930   21.549963 O.3        1 MOL1        -0.3740
      67    C20     23.050534   23.638966   22.308410 C.3        1 MOL1         0.1003
      68    H32     23.160437   24.682002   21.984342 H          1 MOL1         0.0783
      69    O17     23.794857   23.437663   23.518256 O.3        1 MOL1        -0.5519
      70    H33     23.293351   23.937240   24.201510 H          1 MOL1         0.3769
      71    C21     21.548275   23.375476   22.571244 C.3        1 MOL1         0.1053
      72    H34     21.449769   22.352978   22.959040 H          1 MOL1         0.0783
      73    O18     21.073206   24.307996   23.549596 O.3        1 MOL1        -0.5519
      74    H35     20.239585   23.915560   23.911687 H          1 MOL1         0.3769
      75    C22     20.724075   23.475714   21.256661 C.3        1 MOL1         0.1018
      76    H36     20.655055   24.524352   20.938439 H          1 MOL1         0.0783
      77    C23     21.369432   22.644288   20.115212 C.3        1 MOL1         0.1043
      78    H37     21.261690   21.577983   20.355881 H          1 MOL1         0.0783
      79    O19     22.772722   22.985599   19.993662 O.3        1 MOL1        -0.3740
      80    C24     20.711825   22.886687   18.738593 C.3        1 MOL1         0.0138
      81    H38     19.650720   22.612606   18.793416 H          1 MOL1         0.0794
      82    H39     21.184133   22.223173   18.002044 H          1 MOL1         0.0794
      83    O20     20.849279   24.252407   18.335109 O.3        1 MOL1        -0.5486
      84    H40     21.809057   24.456635   18.394550 H          1 MOL1         0.3769
      85    C25     25.210777   17.693029   21.765077 C.3        1 MOL1         0.2972
      86    H41     25.880386   16.825558   21.820791 H          1 MOL1         0.0751
      87    O21     23.836096   17.300794   21.577693 O.3        1 MOL1        -0.3740
      88    C26     25.316750   18.531161   23.062301 C.3        1 MOL1         0.1003
      89    H42     26.348535   18.899338   23.133029 H          1 MOL1         0.0783
      90    O22     25.017502   17.742412   24.221916 O.3        1 MOL1        -0.5519
      91    H43     24.922087   18.398779   24.948538 H          1 MOL1         0.3769
      92    C27     24.377710   19.756223   22.997655 C.3        1 MOL1         0.1053
      93    H44     23.343120   19.391052   23.019019 H          1 MOL1         0.0783
      94    O23     24.619364   20.607052   24.124807 O.3        1 MOL1        -0.5519
      95    H45     24.178115   21.469383   23.926247 H          1 MOL1         0.3769
      96    C28     24.576948   20.564591   21.691950 C.3        1 MOL1         0.1018
      97    H46     25.479117   21.181265   21.800446 H          1 MOL1         0.0783
      98    C29     24.689880   19.671776   20.422900 C.3        1 MOL1         0.1043
      99    H47     23.687522   19.296084   20.177768 H          1 MOL1         0.0783
     100    O24     25.581718   18.554910   20.668735 O.3        1 MOL1        -0.3740
     101    C30     25.220049   20.428547   19.184845 C.3        1 MOL1         0.0138
     102    H48     24.506551   21.216734   18.911405 H          1 MOL1         0.0794
     103    H49     25.272266   19.728880   18.339944 H          1 MOL1         0.0794
     104    O25     26.508778   20.995180   19.439455 O.3        1 MOL1        -0.5486
     105    H50     27.087744   20.248072   19.710153 H          1 MOL1         0.3769
     106    C31     21.350939   14.043400   20.933599 C.3        1 MOL1         0.2972
     107    H51     20.926440   13.067985   20.663267 H          1 MOL1         0.0751
     108    O26     20.317384   15.003535   21.230682 O.3        1 MOL1        -0.3740
     109    C32     22.300670   13.913499   22.154618 C.3        1 MOL1         0.1003
     110    H52     23.103245   13.220925   21.869342 H          1 MOL1         0.0783
     111    O27     21.622489   13.395124   23.305851 O.3        1 MOL1        -0.5519
     112    H53     22.283851   13.453880   24.031892 H          1 MOL1         0.3769
     113    C33     22.950400   15.273720   22.501293 C.3        1 MOL1         0.1053
     114    H54     22.161119   15.948109   22.862071 H          1 MOL1         0.0783
     115    O28     23.935187   15.085450   23.524959 O.3        1 MOL1        -0.5519
     116    H55     24.255902   15.987433   23.776832 H          1 MOL1         0.3769
     117    C34     23.603007   15.918796   21.253167 C.3        1 MOL1         0.1018
     118    H56     24.532940   15.388057   21.009725 H          1 MOL1         0.0783
     119    C35     22.667781   15.893613   20.015864 C.3        1 MOL1         0.1043
     120    H57     21.853986   16.609534   20.183605 H          1 MOL1         0.0783
     121    O29     22.126424   14.561519   19.832695 O.3        1 MOL1        -0.3740
     122    C36     23.386814   16.289533   18.707448 C.3        1 MOL1         0.0138
     123    H58     23.796458   17.302193   18.813674 H          1 MOL1         0.0794
     124    H59     22.648848   16.316356   17.894666 H          1 MOL1         0.0794
     125    O30     24.433553   15.364958   18.397017 O.3        1 MOL1        -0.5486
     126    H60     24.017605   14.474104   18.400720 H          1 MOL1         0.3769
     127    C1      18.955968   19.471305   25.441596 C.2        1 MOL1         0.6115
     128    O1      19.547736   19.027700   26.405531 O.co2      1 MOL1        -0.6776
     129    O2      18.198336   20.422541   25.491175 O.co2      1 MOL1        -0.6776
     130    C2      19.187846   18.815358   24.084316 C.3        1 MOL1        -0.2013
     131    H1      18.234285   18.810721   23.545244 H          1 MOL1         0.0727
     132    H2      19.466588   17.770819   24.261835 H          1 MOL1         0.0727
     133    C3      20.292197   19.520868   23.255317 C.3        1 MOL1        -0.1910
     134    H3      20.031457   20.577197   23.117199 H          1 MOL1         0.0729
     135    H4      21.221150   19.507056   23.839833 H          1 MOL1         0.0729
     136    C4      20.550451   18.862654   21.879084 C.3        1 MOL1        -0.1909
     137    H5      20.721380   17.786544   22.011906 H          1 MOL1         0.0729
     138    H6      21.476909   19.276036   21.460770 H          1 MOL1         0.0729
     139    C5      19.403052   19.095181   20.871703 C.3        1 MOL1        -0.1884
     140    H7      18.473630   18.657211   21.256156 H          1 MOL1         0.0729
     141    H8      19.225187   20.172554   20.759151 H          1 MOL1         0.0729
     142    C6      19.721773   18.487016   19.491263 C.3        1 MOL1        -0.2899
     143    H9      18.931733   18.728144   18.769577 H          1 MOL1         0.0741
     144    H10     20.669077   18.878445   19.098958 H          1 MOL1         0.0741
     145    H11     19.798159   17.394863   19.556343 H          1 MOL1         0.0741
@<TRIPOS>BOND
    1     1     2    1
    2     1     3    1
    3     1     4    1
    4     4     5    1
    5     4     6    1
    6     6     7    1
    7     4     8    1
    8     8     9    1
    9     8    10    1
   10    10    11    1
   11     8    12    1
   12    12    13    1
   13    12    14    1
   14    14    15    1
   15     1    16    1
   16    14    16    1
   17    14    17    1
   18    17    18    1
   19    17    19    1
   20    17    20    1
   21    20    21    1
   22    22    23    1
   23    22    24    1
   24    22    25    1
   25    25    26    1
   26    25    27    1
   27    27    28    1
   28    25    29    1
   29    29    30    1
   30    29    31    1
   31    31    32    1
   32     3    33    1
   33    29    33    1
   34    33    34    1
   35    33    35    1
   36    35    36    1
   37    22    37    1
   38    35    37    1
   39    35    38    1
   40    38    39    1
   41    38    40    1
   42    38    41    1
   43    41    42    1
   44    43    44    1
   45    43    45    1
   46    43    46    1
   47    46    47    1
   48    46    48    1
   49    48    49    1
   50    46    50    1
   51    50    51    1
   52    50    52    1
   53    52    53    1
   54    24    54    1
   55    50    54    1
   56    54    55    1
   57    54    56    1
   58    56    57    1
   59    43    58    1
   60    56    58    1
   61    56    59    1
   62    59    60    1
   63    59    61    1
   64    59    62    1
   65    62    63    1
   66    64    65    1
   67    64    66    1
   68    64    67    1
   69    67    68    1
   70    67    69    1
   71    69    70    1
   72    67    71    1
   73    71    72    1
   74    71    73    1
   75    73    74    1
   76    45    75    1
   77    71    75    1
   78    75    76    1
   79    75    77    1
   80    77    78    1
   81    64    79    1
   82    77    79    1
   83    77    80    1
   84    80    81    1
   85    80    82    1
   86    80    83    1
   87    83    84    1
   88    85    86    1
   89    85    87    1
   90    85    88    1
   91    88    89    1
   92    88    90    1
   93    90    91    1
   94    88    92    1
   95    92    93    1
   96    92    94    1
   97    94    95    1
   98    66    96    1
   99    92    96    1
  100    96    97    1
  101    96    98    1
  102    98    99    1
  103    85   100    1
  104    98   100    1
  105    98   101    1
  106   101   102    1
  107   101   103    1
  108   101   104    1
  109   104   105    1
  110   106   107    1
  111    12   108    1
  112   106   108    1
  113   106   109    1
  114   109   110    1
  115   109   111    1
  116   111   112    1
  117   109   113    1
  118   113   114    1
  119   113   115    1
  120   115   116    1
  121    87   117    1
  122   113   117    1
  123   117   118    1
  124   117   119    1
  125   119   120    1
  126   106   121    1
  127   119   121    1
  128   119   122    1
  129   122   123    1
  130   122   124    1
  131   122   125    1
  132   125   126    1
  133   127   128    1
  134   127   129    2
  135   127   130    1
  136   130   131    1
  137   130   132    1
  138   130   133    1
  139   133   134    1
  140   133   135    1
  141   133   136    1
  142   136   137    1
  143   136   138    1
  144   136   139    1
  145   139   140    1
  146   139   141    1
  147   139   142    1
  148   142   143    1
  149   142   144    1
  150   142   145    1
@<TRIPOS>SUBSTRUCTURE
       1 MOL1            1 RESIDUE      1      MOL     
       2 MOL1          145 RESIDUE      1      MOL     
@<SCITEGIC>MOL_PROPERTY
VM2 Rank
SciTegic.value.IntegerValue
2

@<SCITEGIC>MOL_PROPERTY
Conf_Id
SciTegic.value.IntegerValue
26073

@<SCITEGIC>MOL_PROPERTY
Probability
SciTegic.value.DoubleValue
3.64

@<SCITEGIC>MOL_PROPERTY
Sum Probability
SciTegic.value.DoubleValue
7.96

@<SCITEGIC>MOL_PROPERTY
Delta G
SciTegic.value.DoubleValue
0.101

@<SCITEGIC>MOL_PROPERTY
G
SciTegic.value.DoubleValue
488.891

@<SCITEGIC>MOL_PROPERTY
E
SciTegic.value.DoubleValue
301.500

@<SCITEGIC>MOL_PROPERTY
-TS
SciTegic.value.DoubleValue
187.391

@<SCITEGIC>MOL_PROPERTY
U+W
SciTegic.value.DoubleValue
173.623

@<SCITEGIC>MOL_PROPERTY
U
SciTegic.value.DoubleValue
247.836

@<SCITEGIC>MOL_PROPERTY
W
SciTegic.value.DoubleValue
-74.212

@<SCITEGIC>MOL_PROPERTY
W(PB)
SciTegic.value.DoubleValue
-80.376

@<SCITEGIC>MOL_PROPERTY
W(SA)
SciTegic.value.DoubleValue
6.164

@<SCITEGIC>MOL_PROPERTY
Valence
SciTegic.value.DoubleValue
149.199

@<SCITEGIC>MOL_PROPERTY
Coulomb
SciTegic.value.DoubleValue
122.723

@<SCITEGIC>MOL_PROPERTY
VdW
SciTegic.value.DoubleValue
-24.086

@<SCITEGIC>MOL_PROPERTY
VdW6
SciTegic.value.DoubleValue
-178.809

@<SCITEGIC>MOL_PROPERTY
VdW12
SciTegic.value.DoubleValue
154.723

@<SCITEGIC>MOL_PROPERTY
Bond
SciTegic.value.DoubleValue
4.565

@<SCITEGIC>MOL_PROPERTY
Angle
SciTegic.value.DoubleValue
11.745

@<SCITEGIC>MOL_PROPERTY
Pdih
SciTegic.value.DoubleValue
132.888

@<SCITEGIC>MOL_PROPERTY
Idih
SciTegic.value.DoubleValue
0.001

@<SCITEGIC>MOL_PROPERTY
Tether
SciTegic.value.DoubleValue
0.000

@<TRIPOS>MOLECULE
CD_guest-7_vm2_rndm.mol2 : vm2 host+ligand conformer 3
         145         150           2
SMALL
USER_CHARGES
 
@<TRIPOS>ATOM
       1    C1      16.168973   15.032983   21.364089 C.3        1 MOL1         0.2972
       2    H1      15.082657   14.878464   21.357159 H          1 MOL1         0.0751
       3    O1      16.514444   16.429597   21.271837 O.3        1 MOL1        -0.3740
       4    C2      16.780648   14.453498   22.662650 C.3        1 MOL1         0.1003
       5    H2      16.588479   13.372656   22.662718 H          1 MOL1         0.0783
       6    O2      16.185241   15.037292   23.829250 O.3        1 MOL1        -0.5519
       7    H3      16.767333   14.754585   24.570333 H          1 MOL1         0.3769
       8    C3      18.311021   14.664181   22.686567 C.3        1 MOL1         0.1053
       9    H4      18.503934   15.740550   22.779078 H          1 MOL1         0.0783
      10    O3      18.871320   13.968922   23.806886 O.3        1 MOL1        -0.5519
      11    H5      19.847679   13.929647   23.655298 H          1 MOL1         0.3769
      12    C4      18.979673   14.163660   21.382091 C.3        1 MOL1         0.1018
      13    H6      19.063193   13.069861   21.432961 H          1 MOL1         0.0783
      14    C5      18.211610   14.580305   20.095093 C.3        1 MOL1         0.1043
      15    H7      18.391716   15.649311   19.919521 H          1 MOL1         0.0783
      16    O4      16.789521   14.346303   20.256869 O.3        1 MOL1        -0.3740
      17    C6      18.670711   13.816581   18.833184 C.3        1 MOL1         0.0138
      18    H8      19.721894   14.058335   18.628572 H          1 MOL1         0.0794
      19    H9      18.082222   14.167896   17.975062 H          1 MOL1         0.0794
      20    O5      18.511609   12.404463   18.998649 O.3        1 MOL1        -0.5486
      21    H10     17.563173   12.259138   19.213141 H          1 MOL1         0.3769
      22    C7      14.938145   20.233882   20.785755 C.3        1 MOL1         0.2972
      23    H11     14.315089   21.102389   20.536321 H          1 MOL1         0.0751
      24    O6      16.264482   20.633862   21.184526 O.3        1 MOL1        -0.3740
      25    C8      14.290072   19.396003   21.920371 C.3        1 MOL1         0.1003
      26    H12     13.309558   19.061300   21.557418 H          1 MOL1         0.0783
      27    O7      14.108977   20.165897   23.115569 O.3        1 MOL1        -0.5519
      28    H13     13.794514   19.516728   23.784653 H          1 MOL1         0.3769
      29    C9      15.133537   18.137849   22.233885 C.3        1 MOL1         0.1053
      30    H14     16.087275   18.465444   22.670938 H          1 MOL1         0.0783
      31    O8      14.428500   17.311428   23.168221 O.3        1 MOL1        -0.5519
      32    H15     15.043587   16.575575   23.413294 H          1 MOL1         0.3769
      33    C10     15.443906   17.333868   20.946383 C.3        1 MOL1         0.1018
      34    H16     14.540169   16.804124   20.617202 H          1 MOL1         0.0783
      35    C11     15.949154   18.237173   19.791087 C.3        1 MOL1         0.1043
      36    H17     16.961978   18.577850   20.037850 H          1 MOL1         0.0783
      37    O9      15.067454   19.376702   19.632395 O.3        1 MOL1        -0.3740
      38    C12     16.012595   17.502583   18.433874 C.3        1 MOL1         0.0138
      39    H18     16.443819   18.181515   17.686177 H          1 MOL1         0.0794
      40    H19     16.685527   16.640037   18.522271 H          1 MOL1         0.0794
      41    O10     14.711830   17.072237   18.021908 O.3        1 MOL1        -0.5486
      42    H20     14.141769   17.872923   18.045878 H          1 MOL1         0.3769
      43    C13     18.538217   24.011484   21.955140 C.3        1 MOL1         0.2972
      44    H21     18.911596   25.012376   22.206277 H          1 MOL1         0.0751
      45    O11     19.586384   23.162911   21.447950 O.3        1 MOL1        -0.3740
      46    C14     17.908320   23.347160   23.204053 C.3        1 MOL1         0.1003
      47    H22     17.064450   23.976203   23.516011 H          1 MOL1         0.0783
      48    O12     18.844803   23.255621   24.285854 O.3        1 MOL1        -0.5519
      49    H23     18.423342   22.634366   24.921744 H          1 MOL1         0.3769
      50    C15     17.350041   21.947163   22.863508 C.3        1 MOL1         0.1053
      51    H24     18.192902   21.284941   22.623547 H          1 MOL1         0.0783
      52    O13     16.629505   21.446798   23.995593 O.3        1 MOL1        -0.5519
      53    H25     15.943651   20.830759   23.642851 H          1 MOL1         0.3769
      54    C16     16.413075   21.995439   21.632089 C.3        1 MOL1         0.1018
      55    H26     15.452701   22.429486   21.941841 H          1 MOL1         0.0783
      56    C17     17.014999   22.817997   20.456210 C.3        1 MOL1         0.1043
      57    H27     17.841783   22.241150   20.020935 H          1 MOL1         0.0783
      58    O14     17.511835   24.091615   20.942603 O.3        1 MOL1        -0.3740
      59    C18     16.005913   23.110590   19.323528 C.3        1 MOL1         0.0138
      60    H28     15.710409   22.163577   18.852876 H          1 MOL1         0.0794
      61    H29     16.505309   23.713889   18.553635 H          1 MOL1         0.0794
      62    O15     14.853239   23.796316   19.821312 O.3        1 MOL1        -0.5486
      63    H30     15.184679   24.617126   20.248971 H          1 MOL1         0.3769
      64    C19     23.647104   22.962601   20.889155 C.3        1 MOL1         0.2972
      65    H31     24.708601   23.086869   20.641721 H          1 MOL1         0.0751
      66    O16     23.324390   21.583428   21.174675 O.3        1 MOL1        -0.3740
      67    C20     23.241730   23.864695   22.083253 C.3        1 MOL1         0.1003
      68    H32     23.352727   24.905665   21.753665 H          1 MOL1         0.0783
      69    O17     24.106266   23.650386   23.208322 O.3        1 MOL1        -0.5519
      70    H33     23.885514   22.757029   23.571271 H          1 MOL1         0.3769
      71    C21     21.746202   23.638546   22.433179 C.3        1 MOL1         0.1053
      72    H34     21.634498   22.611940   22.809049 H          1 MOL1         0.0783
      73    O18     21.318950   24.567883   23.435802 O.3        1 MOL1        -0.5519
      74    H35     20.501661   24.179878   23.834984 H          1 MOL1         0.3769
      75    C22     20.849066   23.795847   21.171646 C.3        1 MOL1         0.1018
      76    H36     20.723643   24.862821   20.943648 H          1 MOL1         0.0783
      77    C23     21.415719   23.090863   19.909202 C.3        1 MOL1         0.1043
      78    H37     21.253416   22.010282   20.002524 H          1 MOL1         0.0783
      79    O19     22.830631   23.375561   19.774834 O.3        1 MOL1        -0.3740
      80    C24     20.714769   23.571574   18.621728 C.3        1 MOL1         0.0138
      81    H38     20.916931   24.641235   18.477074 H          1 MOL1         0.0794
      82    H39     19.629277   23.448020   18.733328 H          1 MOL1         0.0794
      83    O20     21.178716   22.817765   17.500270 O.3        1 MOL1        -0.5486
      84    H40     22.160332   22.824872   17.555873 H          1 MOL1         0.3769
      85    C25     24.806712   17.884280   22.222272 C.3        1 MOL1         0.2972
      86    H41     25.406116   17.022414   22.541268 H          1 MOL1         0.0751
      87    O21     23.555900   17.473385   21.631272 O.3        1 MOL1        -0.3740
      88    C26     24.504063   18.799049   23.433574 C.3        1 MOL1         0.1003
      89    H42     25.465958   19.150765   23.828238 H          1 MOL1         0.0783
      90    O22     23.829430   18.041128   24.452915 O.3        1 MOL1        -0.5519
      91    H43     23.238048   18.658033   24.957866 H          1 MOL1         0.3769
      92    C27     23.693088   20.045807   22.989821 C.3        1 MOL1         0.1053
      93    H44     22.688047   19.716848   22.697313 H          1 MOL1         0.0783
      94    O23     23.605654   20.976427   24.075247 O.3        1 MOL1        -0.5519
      95    H45     22.977103   20.585779   24.737627 H          1 MOL1         0.3769
      96    C28     24.342679   20.752488   21.765905 C.3        1 MOL1         0.1018
      97    H46     25.206288   21.338992   22.106824 H          1 MOL1         0.0783
      98    C29     24.788693   19.758475   20.658888 C.3        1 MOL1         0.1043
      99    H47     23.891936   19.381243   20.150074 H          1 MOL1         0.0783
     100    O24     25.530905   18.666271   21.252274 O.3        1 MOL1        -0.3740
     101    C30     25.701570   20.410437   19.600250 C.3        1 MOL1         0.0138
     102    H48     26.631094   20.745751   20.079504 H          1 MOL1         0.0794
     103    H49     25.201252   21.291881   19.178683 H          1 MOL1         0.0794
     104    O25     25.982046   19.472475   18.559361 O.3        1 MOL1        -0.5486
     105    H50     26.223076   18.629872   19.007367 H          1 MOL1         0.3769
     106    C31     21.387235   13.971543   20.976747 C.3        1 MOL1         0.2972
     107    H51     21.069024   12.961234   20.689449 H          1 MOL1         0.0751
     108    O26     20.267698   14.802933   21.335192 O.3        1 MOL1        -0.3740
     109    C32     22.359001   13.920141   22.183643 C.3        1 MOL1         0.1003
     110    H52     23.232586   13.329268   21.879083 H          1 MOL1         0.0783
     111    O27     21.745601   13.304601   23.324796 O.3        1 MOL1        -0.5519
     112    H53     22.383805   13.455744   24.058223 H          1 MOL1         0.3769
     113    C33     22.848051   15.339718   22.556994 C.3        1 MOL1         0.1053
     114    H54     21.981818   15.909474   22.918401 H          1 MOL1         0.0783
     115    O28     23.827536   15.242961   23.598146 O.3        1 MOL1        -0.5519
     116    H55     23.882935   16.145998   24.000136 H          1 MOL1         0.3769
     117    C34     23.426791   16.074191   21.315936 C.3        1 MOL1         0.1018
     118    H56     24.395907   15.636056   21.042913 H          1 MOL1         0.0783
     119    C35     22.472299   15.983641   20.094858 C.3        1 MOL1         0.1043
     120    H57     21.585685   16.599979   20.297016 H          1 MOL1         0.0783
     121    O29     22.078583   14.605090   19.879741 O.3        1 MOL1        -0.3740
     122    C36     23.117158   16.492216   18.785884 C.3        1 MOL1         0.0138
     123    H58     23.405813   17.543807   18.910025 H          1 MOL1         0.0794
     124    H59     22.367175   16.450722   17.984928 H          1 MOL1         0.0794
     125    O30     24.260010   15.705231   18.436240 O.3        1 MOL1        -0.5486
     126    H60     23.952495   14.771729   18.425510 H          1 MOL1         0.3769
     127    C1      20.629777   19.379423   25.552794 C.2        1 MOL1         0.6115
     128    O1      21.824641   19.583216   25.663243 O.co2      1 MOL1        -0.6776
     129    O2      19.918075   19.018590   26.469005 O.co2      1 MOL1        -0.6776
     130    C2      19.999084   19.569986   24.177342 C.3        1 MOL1        -0.2013
     131    H1      20.480956   20.432019   23.703552 H          1 MOL1         0.0727
     132    H2      18.944664   19.827658   24.326157 H          1 MOL1         0.0727
     133    C3      20.111260   18.308414   23.282382 C.3        1 MOL1        -0.1910
     134    H3      21.165135   18.022879   23.178602 H          1 MOL1         0.0729
     135    H4      19.615870   17.475641   23.798297 H          1 MOL1         0.0729
     136    C4      19.478436   18.484136   21.881387 C.3        1 MOL1        -0.1909
     137    H5      18.451819   18.858733   21.984853 H          1 MOL1         0.0729
     138    H6      19.404372   17.499272   21.403103 H          1 MOL1         0.0729
     139    C5      20.293239   19.420832   20.962798 C.3        1 MOL1        -0.1884
     140    H7      20.355613   20.421285   21.408180 H          1 MOL1         0.0729
     141    H8      21.321289   19.046260   20.874284 H          1 MOL1         0.0729
     142    C6      19.670665   19.527464   19.556530 C.3        1 MOL1        -0.2899
     143    H9      18.682765   20.001060   19.603702 H          1 MOL1         0.0741
     144    H10     20.303318   20.135572   18.897478 H          1 MOL1         0.0741
     145    H11     19.560012   18.536193   19.098891 H          1 MOL1         0.0741
@<TRIPOS>BOND
    1     1     2    1
    2     1     3    1
    3     1     4    1
    4     4     5    1
    5     4     6    1
    6     6     7    1
    7     4     8    1
    8     8     9    1
    9     8    10    1
   10    10    11    1
   11     8    12    1
   12    12    13    1
   13    12    14    1
   14    14    15    1
   15     1    16    1
   16    14    16    1
   17    14    17    1
   18    17    18    1
   19    17    19    1
   20    17    20    1
   21    20    21    1
   22    22    23    1
   23    22    24    1
   24    22    25    1
   25    25    26    1
   26    25    27    1
   27    27    28    1
   28    25    29    1
   29    29    30    1
   30    29    31    1
   31    31    32    1
   32     3    33    1
   33    29    33    1
   34    33    34    1
   35    33    35    1
   36    35    36    1
   37    22    37    1
   38    35    37    1
   39    35    38    1
   40    38    39    1
   41    38    40    1
   42    38    41    1
   43    41    42    1
   44    43    44    1
   45    43    45    1
   46    43    46    1
   47    46    47    1
   48    46    48    1
   49    48    49    1
   50    46    50    1
   51    50    51    1
   52    50    52    1
   53    52    53    1
   54    24    54    1
   55    50    54    1
   56    54    55    1
   57    54    56    1
   58    56    57    1
   59    43    58    1
   60    56    58    1
   61    56    59    1
   62    59    60    1
   63    59    61    1
   64    59    62    1
   65    62    63    1
   66    64    65    1
   67    64    66    1
   68    64    67    1
   69    67    68    1
   70    67    69    1
   71    69    70    1
   72    67    71    1
   73    71    72    1
   74    71    73    1
   75    73    74    1
   76    45    75    1
   77    71    75    1
   78    75    76    1
   79    75    77    1
   80    77    78    1
   81    64    79    1
   82    77    79    1
   83    77    80    1
   84    80    81    1
   85    80    82    1
   86    80    83    1
   87    83    84    1
   88    85    86    1
   89    85    87    1
   90    85    88    1
   91    88    89    1
   92    88    90    1
   93    90    91    1
   94    88    92    1
   95    92    93    1
   96    92    94    1
   97    94    95    1
   98    66    96    1
   99    92    96    1
  100    96    97    1
  101    96    98    1
  102    98    99    1
  103    85   100    1
  104    98   100    1
  105    98   101    1
  106   101   102    1
  107   101   103    1
  108   101   104    1
  109   104   105    1
  110   106   107    1
  111    12   108    1
  112   106   108    1
  113   106   109    1
  114   109   110    1
  115   109   111    1
  116   111   112    1
  117   109   113    1
  118   113   114    1
  119   113   115    1
  120   115   116    1
  121    87   117    1
  122   113   117    1
  123   117   118    1
  124   117   119    1
  125   119   120    1
  126   106   121    1
  127   119   121    1
  128   119   122    1
  129   122   123    1
  130   122   124    1
  131   122   125    1
  132   125   126    1
  133   127   128    1
  134   127   129    2
  135   127   130    1
  136   130   131    1
  137   130   132    1
  138   130   133    1
  139   133   134    1
  140   133   135    1
  141   133   136    1
  142   136   137    1
  143   136   138    1
  144   136   139    1
  145   139   140    1
  146   139   141    1
  147   139   142    1
  148   142   143    1
  149   142   144    1
  150   142   145    1
@<TRIPOS>SUBSTRUCTURE
       1 MOL1            1 RESIDUE      1      MOL     
       2 MOL1          145 RESIDUE      1      MOL     
@<SCITEGIC>MOL_PROPERTY
VM2 Rank
SciTegic.value.IntegerValue
3

@<SCITEGIC>MOL_PROPERTY
Conf_Id
SciTegic.value.IntegerValue
25088

@<SCITEGIC>MOL_PROPERTY
Probability
SciTegic.value.DoubleValue
1.93

@<SCITEGIC>MOL_PROPERTY
Sum Probability
SciTegic.value.DoubleValue
9.89

@<SCITEGIC>MOL_PROPERTY
Delta G
SciTegic.value.DoubleValue
0.479

@<SCITEGIC>MOL_PROPERTY
G
SciTegic.value.DoubleValue
489.269

@<SCITEGIC>MOL_PROPERTY
E
SciTegic.value.DoubleValue
302.139

@<SCITEGIC>MOL_PROPERTY
-TS
SciTegic.value.DoubleValue
187.130

@<SCITEGIC>MOL_PROPERTY
U+W
SciTegic.value.DoubleValue
174.262

@<SCITEGIC>MOL_PROPERTY
U
SciTegic.value.DoubleValue
248.515

@<SCITEGIC>MOL_PROPERTY
W
SciTegic.value.DoubleValue
-74.253

@<SCITEGIC>MOL_PROPERTY
W(PB)
SciTegic.value.DoubleValue
-80.373

@<SCITEGIC>MOL_PROPERTY
W(SA)
SciTegic.value.DoubleValue
6.120

@<SCITEGIC>MOL_PROPERTY
Valence
SciTegic.value.DoubleValue
150.114

@<SCITEGIC>MOL_PROPERTY
Coulomb
SciTegic.value.DoubleValue
123.098

@<SCITEGIC>MOL_PROPERTY
VdW
SciTegic.value.DoubleValue
-24.697

@<SCITEGIC>MOL_PROPERTY
VdW6
SciTegic.value.DoubleValue
-178.083

@<SCITEGIC>MOL_PROPERTY
VdW12
SciTegic.value.DoubleValue
153.386

@<SCITEGIC>MOL_PROPERTY
Bond
SciTegic.value.DoubleValue
4.517

@<SCITEGIC>MOL_PROPERTY
Angle
SciTegic.value.DoubleValue
11.607

@<SCITEGIC>MOL_PROPERTY
Pdih
SciTegic.value.DoubleValue
133.989

@<SCITEGIC>MOL_PROPERTY
Idih
SciTegic.value.DoubleValue
0.001

@<SCITEGIC>MOL_PROPERTY
Tether
SciTegic.value.DoubleValue
0.000

@<TRIPOS>MOLECULE
CD_guest-7_vm2_rndm.mol2 : vm2 host+ligand conformer 4
         145         150           2
SMALL
USER_CHARGES
 
@<TRIPOS>ATOM
       1    C1      16.183150   15.291494   21.716531 C.3        1 MOL1         0.2972
       2    H1      15.112378   15.120564   21.885166 H          1 MOL1         0.0751
       3    O1      16.438496   16.617644   21.213924 O.3        1 MOL1        -0.3740
       4    C2      16.970889   15.086046   23.033925 C.3        1 MOL1         0.1003
       5    H2      16.820299   14.043490   23.343160 H          1 MOL1         0.0783
       6    O2      16.501694   15.952794   24.075256 O.3        1 MOL1        -0.5519
       7    H3      17.199516   15.902313   24.767071 H          1 MOL1         0.3769
       8    C3      18.485059   15.295465   22.810546 C.3        1 MOL1         0.1053
       9    H4      18.658840   16.352603   22.567973 H          1 MOL1         0.0783
      10    O3      19.185840   14.937337   24.007347 O.3        1 MOL1        -0.5519
      11    H5      20.087072   14.646224   23.728854 H          1 MOL1         0.3769
      12    C4      19.004265   14.440797   21.629276 C.3        1 MOL1         0.1018
      13    H6      19.075947   13.396226   21.961579 H          1 MOL1         0.0783
      14    C5      18.089172   14.538110   20.374334 C.3        1 MOL1         0.1043
      15    H7      18.214044   15.538506   19.939538 H          1 MOL1         0.0783
      16    O4      16.699912   14.351830   20.750660 O.3        1 MOL1        -0.3740
      17    C6      18.434752   13.512783   19.268009 C.3        1 MOL1         0.0138
      18    H8      19.386620   13.806850   18.805356 H          1 MOL1         0.0794
      19    H9      17.663676   13.567640   18.487932 H          1 MOL1         0.0794
      20    O5      18.533097   12.176984   19.778514 O.3        1 MOL1        -0.5486
      21    H10     18.670281   11.575558   19.014361 H          1 MOL1         0.3769
      22    C7      14.655388   20.243142   20.494865 C.3        1 MOL1         0.2972
      23    H11     14.047091   21.106329   20.195486 H          1 MOL1         0.0751
      24    O6      15.989697   20.640163   20.878103 O.3        1 MOL1        -0.3740
      25    C8      13.987819   19.457951   21.654000 C.3        1 MOL1         0.1003
      26    H12     13.047919   19.045090   21.265915 H          1 MOL1         0.0783
      27    O7      13.684307   20.323897   22.757828 O.3        1 MOL1        -0.5519
      28    H13     14.548560   20.583358   23.163475 H          1 MOL1         0.3769
      29    C9      14.889101   18.266099   22.075817 C.3        1 MOL1         0.1053
      30    H14     15.807827   18.674298   22.519808 H          1 MOL1         0.0783
      31    O8      14.214761   17.443486   23.035086 O.3        1 MOL1        -0.5519
      32    H15     14.921812   16.926769   23.494318 H          1 MOL1         0.3769
      33    C10     15.286795   17.399168   20.846563 C.3        1 MOL1         0.1018
      34    H16     14.440353   16.760235   20.561200 H          1 MOL1         0.0783
      35    C11     15.710592   18.230047   19.605138 C.3        1 MOL1         0.1043
      36    H17     16.721150   18.623259   19.768675 H          1 MOL1         0.0783
      37    O9      14.777124   19.318578   19.394657 O.3        1 MOL1        -0.3740
      38    C12     15.731924   17.372931   18.322613 C.3        1 MOL1         0.0138
      39    H18     14.716080   17.014183   18.109706 H          1 MOL1         0.0794
      40    H19     16.370155   16.494200   18.485890 H          1 MOL1         0.0794
      41    O10     16.231420   18.142280   17.227227 O.3        1 MOL1        -0.5486
      42    H20     15.728680   18.987068   17.238278 H          1 MOL1         0.3769
      43    C13     18.380883   23.790150   21.998444 C.3        1 MOL1         0.2972
      44    H21     18.819367   24.742207   22.322395 H          1 MOL1         0.0751
      45    O11     19.383475   22.893205   21.472867 O.3        1 MOL1        -0.3740
      46    C14     17.674079   23.095838   23.188761 C.3        1 MOL1         0.1003
      47    H22     16.867607   23.759842   23.525566 H          1 MOL1         0.0783
      48    O12     18.609397   22.911911   24.265774 O.3        1 MOL1        -0.5519
      49    H23     18.341929   22.102372   24.774242 H          1 MOL1         0.3769
      50    C15     17.026315   21.760160   22.736075 C.3        1 MOL1         0.1053
      51    H24     17.828767   21.050768   22.498190 H          1 MOL1         0.0783
      52    O13     16.205303   21.235266   23.786772 O.3        1 MOL1        -0.5519
      53    H25     16.819865   20.903391   24.492619 H          1 MOL1         0.3769
      54    C16     16.154708   21.945712   21.463197 C.3        1 MOL1         0.1018
      55    H26     15.193403   22.388370   21.755880 H          1 MOL1         0.0783
      56    C17     16.832480   22.826541   20.377044 C.3        1 MOL1         0.1043
      57    H27     17.633198   22.237485   19.911609 H          1 MOL1         0.0783
      58    O14     17.391710   24.020080   20.974707 O.3        1 MOL1        -0.3740
      59    C18     15.869302   23.268121   19.252774 C.3        1 MOL1         0.0138
      60    H28     15.521401   22.379288   18.709991 H          1 MOL1         0.0794
      61    H29     16.424379   23.890407   18.537959 H          1 MOL1         0.0794
      62    O15     14.753998   23.992353   19.780180 O.3        1 MOL1        -0.5486
      63    H30     15.130849   24.749199   20.281972 H          1 MOL1         0.3769
      64    C19     23.543308   22.718754   21.110513 C.3        1 MOL1         0.2972
      65    H31     24.594245   22.939224   20.883637 H          1 MOL1         0.0751
      66    O16     23.359278   21.348377   21.510524 O.3        1 MOL1        -0.3740
      67    C20     23.025060   23.628996   22.253441 C.3        1 MOL1         0.1003
      68    H32     23.129954   24.669474   21.919643 H          1 MOL1         0.0783
      69    O17     23.782669   23.438670   23.456810 O.3        1 MOL1        -0.5519
      70    H33     23.287656   23.942972   24.141328 H          1 MOL1         0.3769
      71    C21     21.526112   23.365607   22.534614 C.3        1 MOL1         0.1053
      72    H34     21.433020   22.345952   22.931217 H          1 MOL1         0.0783
      73    O18     21.060458   24.305019   23.510915 O.3        1 MOL1        -0.5519
      74    H35     20.231278   23.914350   23.884925 H          1 MOL1         0.3769
      75    C22     20.687865   23.454628   21.228152 C.3        1 MOL1         0.1018
      76    H36     20.615160   24.500497   20.901752 H          1 MOL1         0.0783
      77    C23     21.321518   22.613593   20.087165 C.3        1 MOL1         0.1043
      78    H37     21.217856   21.549361   20.338599 H          1 MOL1         0.0783
      79    O19     22.722948   22.955663   19.947270 O.3        1 MOL1        -0.3740
      80    C24     20.648538   22.842621   18.715683 C.3        1 MOL1         0.0138
      81    H38     19.588573   22.567225   18.784444 H          1 MOL1         0.0794
      82    H39     21.113881   22.173259   17.979987 H          1 MOL1         0.0794
      83    O20     20.779346   24.204924   18.298580 O.3        1 MOL1        -0.5486
      84    H40     21.739391   24.411080   18.345526 H          1 MOL1         0.3769
      85    C25     25.187819   17.682341   21.736362 C.3        1 MOL1         0.2972
      86    H41     25.858727   16.815887   21.792344 H          1 MOL1         0.0751
      87    O21     23.811887   17.287529   21.564542 O.3        1 MOL1        -0.3740
      88    C26     25.305000   18.530350   23.026194 C.3        1 MOL1         0.1003
      89    H42     26.336944   18.900284   23.084303 H          1 MOL1         0.0783
      90    O22     25.017879   17.750021   24.194536 O.3        1 MOL1        -0.5519
      91    H43     24.928608   18.411731   24.917076 H          1 MOL1         0.3769
      92    C27     24.363882   19.753820   22.961299 C.3        1 MOL1         0.1053
      93    H44     23.329922   19.387778   22.995865 H          1 MOL1         0.0783
      94    O23     24.615588   20.613655   24.079379 O.3        1 MOL1        -0.5519
      95    H45     24.171604   21.473987   23.878275 H          1 MOL1         0.3769
      96    C28     24.549430   20.552340   21.647489 C.3        1 MOL1         0.1018
      97    H46     25.451391   21.171498   21.742775 H          1 MOL1         0.0783
      98    C29     24.652040   19.650144   20.384196 C.3        1 MOL1         0.1043
      99    H47     23.647962   19.271354   20.151123 H          1 MOL1         0.0783
     100    O24     25.547661   18.536346   20.630229 O.3        1 MOL1        -0.3740
     101    C30     25.169719   20.398204   19.135603 C.3        1 MOL1         0.0138
     102    H48     24.452462   21.183122   18.862594 H          1 MOL1         0.0794
     103    H49     25.215405   19.692128   18.295668 H          1 MOL1         0.0794
     104    O25     26.459774   20.968814   19.374114 O.3        1 MOL1        -0.5486
     105    H50     27.042437   20.224714   19.645160 H          1 MOL1         0.3769
     106    C31     21.324490   14.022012   20.972367 C.3        1 MOL1         0.2972
     107    H51     20.899261   13.043975   20.714109 H          1 MOL1         0.0751
     108    O26     20.293189   14.981640   21.277402 O.3        1 MOL1        -0.3740
     109    C32     22.289147   13.901815   22.182591 C.3        1 MOL1         0.1003
     110    H52     23.089036   13.208102   21.892616 H          1 MOL1         0.0783
     111    O27     21.625354   13.391205   23.345697 O.3        1 MOL1        -0.5519
     112    H53     22.294529   13.458287   24.063781 H          1 MOL1         0.3769
     113    C33     22.941216   15.265137   22.512083 C.3        1 MOL1         0.1053
     114    H54     22.155380   15.940619   22.878313 H          1 MOL1         0.0783
     115    O28     23.938967   15.085071   23.524646 O.3        1 MOL1        -0.5519
     116    H55     24.259611   15.989361   23.768190 H          1 MOL1         0.3769
     117    C34     23.577041   15.903144   21.251737 C.3        1 MOL1         0.1018
     118    H56     24.504695   15.372415   20.999732 H          1 MOL1         0.0783
     119    C35     22.626094   15.868685   20.026728 C.3        1 MOL1         0.1043
     120    H57     21.813174   16.583935   20.200911 H          1 MOL1         0.0783
     121    O29     22.085136   14.534509   19.858503 O.3        1 MOL1        -0.3740
     122    C36     23.327164   16.258241   18.706730 C.3        1 MOL1         0.0138
     123    H58     23.736178   17.272268   18.801613 H          1 MOL1         0.0794
     124    H59     22.578515   16.278895   17.903582 H          1 MOL1         0.0794
     125    O30     24.371520   15.333764   18.388086 O.3        1 MOL1        -0.5486
     126    H60     23.957440   14.442170   18.403294 H          1 MOL1         0.3769
     127    C1      18.954711   19.473242   25.466576 C.2        1 MOL1         0.6115
     128    O1      19.544009   19.028307   26.431423 O.co2      1 MOL1        -0.6776
     129    O2      18.205591   20.431375   25.513369 O.co2      1 MOL1        -0.6776
     130    C2      19.178905   18.810027   24.111548 C.3        1 MOL1        -0.2013
     131    H1      18.222658   18.804902   23.577300 H          1 MOL1         0.0727
     132    H2      19.456328   17.765548   24.292164 H          1 MOL1         0.0727
     133    C3      20.280197   19.510110   23.273828 C.3        1 MOL1        -0.1910
     134    H3      20.020190   20.566268   23.132418 H          1 MOL1         0.0729
     135    H4      21.212521   19.497253   23.853082 H          1 MOL1         0.0729
     136    C4      20.529611   18.845714   21.899030 C.3        1 MOL1        -0.1909
     137    H5      20.701562   17.770208   22.035460 H          1 MOL1         0.0729
     138    H6      21.452880   19.257504   21.472277 H          1 MOL1         0.0729
     139    C5      19.375362   19.073143   20.898526 C.3        1 MOL1        -0.1884
     140    H7      18.449375   18.633919   21.289635 H          1 MOL1         0.0729
     141    H8      19.194011   20.149617   20.783590 H          1 MOL1         0.0729
     142    C6      19.686093   18.461808   19.517777 C.3        1 MOL1        -0.2899
     143    H9      18.888316   18.695848   18.801456 H          1 MOL1         0.0741
     144    H10     20.628101   18.855909   19.115783 H          1 MOL1         0.0741
     145    H11     19.766618   17.370254   19.585256 H          1 MOL1         0.0741
@<TRIPOS>BOND
    1     1     2    1
    2     1     3    1
    3     1     4    1
    4     4     5    1
    5     4     6    1
    6     6     7    1
    7     4     8    1
    8     8     9    1
    9     8    10    1
   10    10    11    1
   11     8    12    1
   12    12    13    1
   13    12    14    1
   14    14    15    1
   15     1    16    1
   16    14    16    1
   17    14    17    1
   18    17    18    1
   19    17    19    1
   20    17    20    1
   21    20    21    1
   22    22    23    1
   23    22    24    1
   24    22    25    1
   25    25    26    1
   26    25    27    1
   27    27    28    1
   28    25    29    1
   29    29    30    1
   30    29    31    1
   31    31    32    1
   32     3    33    1
   33    29    33    1
   34    33    34    1
   35    33    35    1
   36    35    36    1
   37    22    37    1
   38    35    37    1
   39    35    38    1
   40    38    39    1
   41    38    40    1
   42    38    41    1
   43    41    42    1
   44    43    44    1
   45    43    45    1
   46    43    46    1
   47    46    47    1
   48    46    48    1
   49    48    49    1
   50    46    50    1
   51    50    51    1
   52    50    52    1
   53    52    53    1
   54    24    54    1
   55    50    54    1
   56    54    55    1
   57    54    56    1
   58    56    57    1
   59    43    58    1
   60    56    58    1
   61    56    59    1
   62    59    60    1
   63    59    61    1
   64    59    62    1
   65    62    63    1
   66    64    65    1
   67    64    66    1
   68    64    67    1
   69    67    68    1
   70    67    69    1
   71    69    70    1
   72    67    71    1
   73    71    72    1
   74    71    73    1
   75    73    74    1
   76    45    75    1
   77    71    75    1
   78    75    76    1
   79    75    77    1
   80    77    78    1
   81    64    79    1
   82    77    79    1
   83    77    80    1
   84    80    81    1
   85    80    82    1
   86    80    83    1
   87    83    84    1
   88    85    86    1
   89    85    87    1
   90    85    88    1
   91    88    89    1
   92    88    90    1
   93    90    91    1
   94    88    92    1
   95    92    93    1
   96    92    94    1
   97    94    95    1
   98    66    96    1
   99    92    96    1
  100    96    97    1
  101    96    98    1
  102    98    99    1
  103    85   100    1
  104    98   100    1
  105    98   101    1
  106   101   102    1
  107   101   103    1
  108   101   104    1
  109   104   105    1
  110   106   107    1
  111    12   108    1
  112   106   108    1
  113   106   109    1
  114   109   110    1
  115   109   111    1
  116   111   112    1
  117   109   113    1
  118   113   114    1
  119   113   115    1
  120   115   116    1
  121    87   117    1
  122   113   117    1
  123   117   118    1
  124   117   119    1
  125   119   120    1
  126   106   121    1
  127   119   121    1
  128   119   122    1
  129   122   123    1
  130   122   124    1
  131   122   125    1
  132   125   126    1
  133   127   128    1
  134   127   129    2
  135   127   130    1
  136   130   131    1
  137   130   132    1
  138   130   133    1
  139   133   134    1
  140   133   135    1
  141   133   136    1
  142   136   137    1
  143   136   138    1
  144   136   139    1
  145   139   140    1
  146   139   141    1
  147   139   142    1
  148   142   143    1
  149   142   144    1
  150   142   145    1
@<TRIPOS>SUBSTRUCTURE
       1 MOL1            1 RESIDUE      1      MOL     
       2 MOL1          145 RESIDUE      1      MOL     
@<SCITEGIC>MOL_PROPERTY
VM2 Rank
SciTegic.value.IntegerValue
4

@<SCITEGIC>MOL_PROPERTY
Conf_Id
SciTegic.value.IntegerValue
27350

@<SCITEGIC>MOL_PROPERTY
Probability
SciTegic.value.DoubleValue
1.78

@<SCITEGIC>MOL_PROPERTY
Sum Probability
SciTegic.value.DoubleValue
11.67

@<SCITEGIC>MOL_PROPERTY
Delta G
SciTegic.value.DoubleValue
0.529

@<SCITEGIC>MOL_PROPERTY
G
SciTegic.value.DoubleValue
489.319

@<SCITEGIC>MOL_PROPERTY
E
SciTegic.value.DoubleValue
302.223

@<SCITEGIC>MOL_PROPERTY
-TS
SciTegic.value.DoubleValue
187.096

@<SCITEGIC>MOL_PROPERTY
U+W
SciTegic.value.DoubleValue
174.346

@<SCITEGIC>MOL_PROPERTY
U
SciTegic.value.DoubleValue
251.208

@<SCITEGIC>MOL_PROPERTY
W
SciTegic.value.DoubleValue
-76.862

@<SCITEGIC>MOL_PROPERTY
W(PB)
SciTegic.value.DoubleValue
-83.002

@<SCITEGIC>MOL_PROPERTY
W(SA)
SciTegic.value.DoubleValue
6.140

@<SCITEGIC>MOL_PROPERTY
Valence
SciTegic.value.DoubleValue
149.164

@<SCITEGIC>MOL_PROPERTY
Coulomb
SciTegic.value.DoubleValue
126.400

@<SCITEGIC>MOL_PROPERTY
VdW
SciTegic.value.DoubleValue
-24.357

@<SCITEGIC>MOL_PROPERTY
VdW6
SciTegic.value.DoubleValue
-178.361

@<SCITEGIC>MOL_PROPERTY
VdW12
SciTegic.value.DoubleValue
154.004

@<SCITEGIC>MOL_PROPERTY
Bond
SciTegic.value.DoubleValue
4.553

@<SCITEGIC>MOL_PROPERTY
Angle
SciTegic.value.DoubleValue
11.797

@<SCITEGIC>MOL_PROPERTY
Pdih
SciTegic.value.DoubleValue
132.813

@<SCITEGIC>MOL_PROPERTY
Idih
SciTegic.value.DoubleValue
0.001

@<SCITEGIC>MOL_PROPERTY
Tether
SciTegic.value.DoubleValue
0.000

@<TRIPOS>MOLECULE
CD_guest-7_vm2_rndm.mol2 : vm2 host+ligand conformer 5
         145         150           2
SMALL
USER_CHARGES
 
@<TRIPOS>ATOM
       1    C1      16.185001   15.292958   21.711714 C.3        1 MOL1         0.2972
       2    H1      15.114206   15.124230   21.882511 H          1 MOL1         0.0751
       3    O1      16.440863   16.613118   21.193953 O.3        1 MOL1        -0.3740
       4    C2      16.974407   15.101439   23.030501 C.3        1 MOL1         0.1003
       5    H2      16.822903   14.062547   23.351286 H          1 MOL1         0.0783
       6    O2      16.507794   15.978736   24.063850 O.3        1 MOL1        -0.5519
       7    H3      17.206358   15.933968   24.755301 H          1 MOL1         0.3769
       8    C3      18.488982   15.306160   22.803841 C.3        1 MOL1         0.1053
       9    H4      18.665071   16.361265   22.554046 H          1 MOL1         0.0783
      10    O3      19.188221   14.954385   24.003166 O.3        1 MOL1        -0.5519
      11    H5      20.087939   14.656094   23.727676 H          1 MOL1         0.3769
      12    C4      19.005814   14.441687   21.628199 C.3        1 MOL1         0.1018
      13    H6      19.077139   13.399352   21.967482 H          1 MOL1         0.0783
      14    C5      18.088998   14.531734   20.374107 C.3        1 MOL1         0.1043
      15    H7      18.215387   15.526388   19.926246 H          1 MOL1         0.0783
      16    O4      16.702121   14.341421   20.756458 O.3        1 MOL1        -0.3740
      17    C6      18.422817   13.486257   19.286730 C.3        1 MOL1         0.0138
      18    H8      19.427595   13.687381   18.892096 H          1 MOL1         0.0794
      19    H9      17.716771   13.605837   18.454090 H          1 MOL1         0.0794
      20    O5      18.353742   12.156166   19.809064 O.3        1 MOL1        -0.5486
      21    H10     17.444696   12.048270   20.167518 H          1 MOL1         0.3769
      22    C7      14.660286   20.243040   20.484897 C.3        1 MOL1         0.2972
      23    H11     14.052813   21.107220   20.186711 H          1 MOL1         0.0751
      24    O6      15.993515   20.638795   20.873078 O.3        1 MOL1        -0.3740
      25    C8      13.989621   19.454344   21.639723 C.3        1 MOL1         0.1003
      26    H12     13.050262   19.043621   21.248077 H          1 MOL1         0.0783
      27    O7      13.684366   20.316728   22.745899 O.3        1 MOL1        -0.5519
      28    H13     14.547938   20.573768   23.154554 H          1 MOL1         0.3769
      29    C9      14.888793   18.260269   22.059752 C.3        1 MOL1         0.1053
      30    H14     15.806434   18.666147   22.508152 H          1 MOL1         0.0783
      31    O8      14.209957   17.435732   23.014109 O.3        1 MOL1        -0.5519
      32    H15     14.916195   16.926126   23.482370 H          1 MOL1         0.3769
      33    C10     15.289886   17.397102   20.828632 C.3        1 MOL1         0.1018
      34    H16     14.444157   16.759378   20.538542 H          1 MOL1         0.0783
      35    C11     15.717444   18.232703   19.591600 C.3        1 MOL1         0.1043
      36    H17     16.727562   18.625249   19.759901 H          1 MOL1         0.0783
      37    O9      14.784746   19.322024   19.382108 O.3        1 MOL1        -0.3740
      38    C12     15.742829   17.380573   18.305824 C.3        1 MOL1         0.0138
      39    H18     14.727780   17.022107   18.088689 H          1 MOL1         0.0794
      40    H19     16.381130   16.501601   18.467450 H          1 MOL1         0.0794
      41    O10     16.244943   18.154459   17.214834 O.3        1 MOL1        -0.5486
      42    H20     15.741823   18.998996   17.227940 H          1 MOL1         0.3769
      43    C13     18.378360   23.788126   22.009150 C.3        1 MOL1         0.2972
      44    H21     18.815031   24.739589   22.337263 H          1 MOL1         0.0751
      45    O11     19.382942   22.894163   21.482404 O.3        1 MOL1        -0.3740
      46    C14     17.670341   23.088531   23.195595 C.3        1 MOL1         0.1003
      47    H22     16.861859   23.749808   23.532943 H          1 MOL1         0.0783
      48    O12     18.603837   22.902941   24.273864 O.3        1 MOL1        -0.5519
      49    H23     18.336422   22.091698   24.779611 H          1 MOL1         0.3769
      50    C15     17.026194   21.753156   22.736725 C.3        1 MOL1         0.1053
      51    H24     17.830432   21.046285   22.497186 H          1 MOL1         0.0783
      52    O13     16.204542   21.222287   23.783953 O.3        1 MOL1        -0.5519
      53    H25     16.818629   20.888614   24.489394 H          1 MOL1         0.3769
      54    C16     16.156265   21.942344   21.463225 C.3        1 MOL1         0.1018
      55    H26     15.194060   22.382823   21.756228 H          1 MOL1         0.0783
      56    C17     16.834448   22.828162   20.381377 C.3        1 MOL1         0.1043
      57    H27     17.636840   22.242037   19.915144 H          1 MOL1         0.0783
      58    O14     17.390810   24.020343   20.984379 O.3        1 MOL1        -0.3740
      59    C18     15.872555   23.272494   19.257080 C.3        1 MOL1         0.0138
      60    H28     15.527318   22.385232   18.710050 H          1 MOL1         0.0794
      61    H29     16.427826   23.898661   18.545814 H          1 MOL1         0.0794
      62    O15     14.754930   23.992564   19.785267 O.3        1 MOL1        -0.5486
      63    H30     15.129412   24.748281   20.290521 H          1 MOL1         0.3769
      64    C19     23.543222   22.724425   21.128468 C.3        1 MOL1         0.2972
      65    H31     24.594438   22.946956   20.905118 H          1 MOL1         0.0751
      66    O16     23.359661   21.353144   21.525977 O.3        1 MOL1        -0.3740
      67    C20     23.022216   23.630908   22.272954 C.3        1 MOL1         0.1003
      68    H32     23.127490   24.672517   21.942834 H          1 MOL1         0.0783
      69    O17     23.777866   23.436330   23.476989 O.3        1 MOL1        -0.5519
      70    H33     23.279871   23.935329   24.163191 H          1 MOL1         0.3769
      71    C21     21.522823   23.365971   22.550243 C.3        1 MOL1         0.1053
      72    H34     21.429765   22.345306   22.944105 H          1 MOL1         0.0783
      73    O18     21.054423   24.302434   23.528053 O.3        1 MOL1        -0.5519
      74    H35     20.225036   23.909861   23.899596 H          1 MOL1         0.3769
      75    C22     20.687191   23.457678   21.242220 C.3        1 MOL1         0.1018
      76    H36     20.614097   24.504331   20.918432 H          1 MOL1         0.0783
      77    C23     21.323830   22.620198   20.100347 C.3        1 MOL1         0.1043
      78    H37     21.220711   21.555230   20.348831 H          1 MOL1         0.0783
      79    O19     22.725042   22.964026   19.964270 O.3        1 MOL1        -0.3740
      80    C24     20.653599   22.852172   18.728019 C.3        1 MOL1         0.0138
      81    H38     19.593733   22.575683   18.793728 H          1 MOL1         0.0794
      82    H39     21.121148   22.185155   17.991595 H          1 MOL1         0.0794
      83    O20     20.784140   24.215654   18.314750 O.3        1 MOL1        -0.5486
      84    H40     21.743839   24.422677   18.364963 H          1 MOL1         0.3769
      85    C25     25.190257   17.679221   21.705283 C.3        1 MOL1         0.2972
      86    H41     25.867791   16.817017   21.743510 H          1 MOL1         0.0751
      87    O21     23.812223   17.275612   21.580957 O.3        1 MOL1        -0.3740
      88    C26     25.340589   18.530400   22.989635 C.3        1 MOL1         0.1003
      89    H42     26.373269   18.901561   23.019873 H          1 MOL1         0.0783
      90    O22     25.084698   17.751052   24.166152 O.3        1 MOL1        -0.5519
      91    H43     25.016627   18.413070   24.890641 H          1 MOL1         0.3769
      92    C27     24.396041   19.752586   22.947666 C.3        1 MOL1         0.1053
      93    H44     23.363353   19.385877   23.009959 H          1 MOL1         0.0783
      94    O23     24.676128   20.615568   24.056648 O.3        1 MOL1        -0.5519
      95    H45     24.216108   21.470983   23.870735 H          1 MOL1         0.3769
      96    C28     24.547163   20.548020   21.627846 C.3        1 MOL1         0.1018
      97    H46     25.456582   21.159922   21.694374 H          1 MOL1         0.0783
      98    C29     24.605831   19.641751   20.365099 C.3        1 MOL1         0.1043
      99    H47     23.594842   19.261062   20.168258 H          1 MOL1         0.0783
     100    O24     25.510850   18.530514   20.584909 O.3        1 MOL1        -0.3740
     101    C30     25.081316   20.385085   19.097058 C.3        1 MOL1         0.0138
     102    H48     24.357075   21.170928   18.846506 H          1 MOL1         0.0794
     103    H49     25.096334   19.676537   18.258193 H          1 MOL1         0.0794
     104    O25     26.380313   20.952909   19.289073 O.3        1 MOL1        -0.5486
     105    H50     26.968998   20.208384   19.545540 H          1 MOL1         0.3769
     106    C31     21.327313   14.011339   20.979765 C.3        1 MOL1         0.2972
     107    H51     20.901666   13.032737   20.723166 H          1 MOL1         0.0751
     108    O26     20.294862   14.975766   21.268439 O.3        1 MOL1        -0.3740
     109    C32     22.280615   13.897039   22.199418 C.3        1 MOL1         0.1003
     110    H52     23.085728   13.205482   21.918709 H          1 MOL1         0.0783
     111    O27     21.607932   13.387607   23.357851 O.3        1 MOL1        -0.5519
     112    H53     22.270164   13.460091   24.081927 H          1 MOL1         0.3769
     113    C33     22.924159   15.264144   22.528894 C.3        1 MOL1         0.1053
     114    H54     22.131885   15.941899   22.876269 H          1 MOL1         0.0783
     115    O28     23.907025   15.096693   23.558400 O.3        1 MOL1        -0.5519
     116    H55     24.246641   16.001184   23.773845 H          1 MOL1         0.3769
     117    C34     23.578876   15.889720   21.272933 C.3        1 MOL1         0.1018
     118    H56     24.508342   15.352007   21.043961 H          1 MOL1         0.0783
     119    C35     22.648275   15.845424   20.032335 C.3        1 MOL1         0.1043
     120    H57     21.832376   16.560493   20.192193 H          1 MOL1         0.0783
     121    O29     22.099098   14.514108   19.869929 O.3        1 MOL1        -0.3740
     122    C36     23.364136   16.241438   18.719187 C.3        1 MOL1         0.0138
     123    H58     23.618536   17.307917   18.770457 H          1 MOL1         0.0794
     124    H59     22.661870   16.112320   17.884880 H          1 MOL1         0.0794
     125    O30     24.551914   15.470124   18.496179 O.3        1 MOL1        -0.5486
     126    H60     24.944788   15.766729   17.646927 H          1 MOL1         0.3769
     127    C1      18.965154   19.469905   25.464384 C.2        1 MOL1         0.6115
     128    O1      19.565053   19.035355   26.427428 O.co2      1 MOL1        -0.6776
     129    O2      18.203609   20.418116   25.512449 O.co2      1 MOL1        -0.6776
     130    C2      19.191850   18.806493   24.109903 C.3        1 MOL1        -0.2013
     131    H1      18.235233   18.795623   23.576324 H          1 MOL1         0.0727
     132    H2      19.475122   17.763810   24.291544 H          1 MOL1         0.0727
     133    C3      20.288625   19.511404   23.270390 C.3        1 MOL1        -0.1910
     134    H3      20.022596   20.565873   23.127952 H          1 MOL1         0.0729
     135    H4      21.222011   19.504296   23.848166 H          1 MOL1         0.0729
     136    C4      20.540031   18.846718   21.896253 C.3        1 MOL1        -0.1909
     137    H5      20.716567   17.772041   22.033253 H          1 MOL1         0.0729
     138    H6      21.461591   19.261956   21.469472 H          1 MOL1         0.0729
     139    C5      19.384789   19.068532   20.895606 C.3        1 MOL1        -0.1884
     140    H7      18.460092   18.627111   21.287414 H          1 MOL1         0.0729
     141    H8      19.199890   20.144216   20.778482 H          1 MOL1         0.0729
     142    C6      19.697931   18.454969   19.516402 C.3        1 MOL1        -0.2899
     143    H9      18.898732   18.683022   18.799740 H          1 MOL1         0.0741
     144    H10     20.637834   18.852579   19.112976 H          1 MOL1         0.0741
     145    H11     19.784083   17.363987   19.586940 H          1 MOL1         0.0741
@<TRIPOS>BOND
    1     1     2    1
    2     1     3    1
    3     1     4    1
    4     4     5    1
    5     4     6    1
    6     6     7    1
    7     4     8    1
    8     8     9    1
    9     8    10    1
   10    10    11    1
   11     8    12    1
   12    12    13    1
   13    12    14    1
   14    14    15    1
   15     1    16    1
   16    14    16    1
   17    14    17    1
   18    17    18    1
   19    17    19    1
   20    17    20    1
   21    20    21    1
   22    22    23    1
   23    22    24    1
   24    22    25    1
   25    25    26    1
   26    25    27    1
   27    27    28    1
   28    25    29    1
   29    29    30    1
   30    29    31    1
   31    31    32    1
   32     3    33    1
   33    29    33    1
   34    33    34    1
   35    33    35    1
   36    35    36    1
   37    22    37    1
   38    35    37    1
   39    35    38    1
   40    38    39    1
   41    38    40    1
   42    38    41    1
   43    41    42    1
   44    43    44    1
   45    43    45    1
   46    43    46    1
   47    46    47    1
   48    46    48    1
   49    48    49    1
   50    46    50    1
   51    50    51    1
   52    50    52    1
   53    52    53    1
   54    24    54    1
   55    50    54    1
   56    54    55    1
   57    54    56    1
   58    56    57    1
   59    43    58    1
   60    56    58    1
   61    56    59    1
   62    59    60    1
   63    59    61    1
   64    59    62    1
   65    62    63    1
   66    64    65    1
   67    64    66    1
   68    64    67    1
   69    67    68    1
   70    67    69    1
   71    69    70    1
   72    67    71    1
   73    71    72    1
   74    71    73    1
   75    73    74    1
   76    45    75    1
   77    71    75    1
   78    75    76    1
   79    75    77    1
   80    77    78    1
   81    64    79    1
   82    77    79    1
   83    77    80    1
   84    80    81    1
   85    80    82    1
   86    80    83    1
   87    83    84    1
   88    85    86    1
   89    85    87    1
   90    85    88    1
   91    88    89    1
   92    88    90    1
   93    90    91    1
   94    88    92    1
   95    92    93    1
   96    92    94    1
   97    94    95    1
   98    66    96    1
   99    92    96    1
  100    96    97    1
  101    96    98    1
  102    98    99    1
  103    85   100    1
  104    98   100    1
  105    98   101    1
  106   101   102    1
  107   101   103    1
  108   101   104    1
  109   104   105    1
  110   106   107    1
  111    12   108    1
  112   106   108    1
  113   106   109    1
  114   109   110    1
  115   109   111    1
  116   111   112    1
  117   109   113    1
  118   113   114    1
  119   113   115    1
  120   115   116    1
  121    87   117    1
  122   113   117    1
  123   117   118    1
  124   117   119    1
  125   119   120    1
  126   106   121    1
  127   119   121    1
  128   119   122    1
  129   122   123    1
  130   122   124    1
  131   122   125    1
  132   125   126    1
  133   127   128    1
  134   127   129    2
  135   127   130    1
  136   130   131    1
  137   130   132    1
  138   130   133    1
  139   133   134    1
  140   133   135    1
  141   133   136    1
  142   136   137    1
  143   136   138    1
  144   136   139    1
  145   139   140    1
  146   139   141    1
  147   139   142    1
  148   142   143    1
  149   142   144    1
  150   142   145    1
@<TRIPOS>SUBSTRUCTURE
       1 MOL1            1 RESIDUE      1      MOL     
       2 MOL1          145 RESIDUE      1      MOL     
@<SCITEGIC>MOL_PROPERTY
VM2 Rank
SciTegic.value.IntegerValue
5

@<SCITEGIC>MOL_PROPERTY
Conf_Id
SciTegic.value.IntegerValue
28625

@<SCITEGIC>MOL_PROPERTY
Probability
SciTegic.value.DoubleValue
1.59

@<SCITEGIC>MOL_PROPERTY
Sum Probability
SciTegic.value.DoubleValue
13.26

@<SCITEGIC>MOL_PROPERTY
Delta G
SciTegic.value.DoubleValue
0.597

@<SCITEGIC>MOL_PROPERTY
G
SciTegic.value.DoubleValue
489.387

@<SCITEGIC>MOL_PROPERTY
E
SciTegic.value.DoubleValue
302.407

@<SCITEGIC>MOL_PROPERTY
-TS
SciTegic.value.DoubleValue
186.980

@<SCITEGIC>MOL_PROPERTY
U+W
SciTegic.value.DoubleValue
174.530

@<SCITEGIC>MOL_PROPERTY
U
SciTegic.value.DoubleValue
251.036

@<SCITEGIC>MOL_PROPERTY
W
SciTegic.value.DoubleValue
-76.506

@<SCITEGIC>MOL_PROPERTY
W(PB)
SciTegic.value.DoubleValue
-82.645

@<SCITEGIC>MOL_PROPERTY
W(SA)
SciTegic.value.DoubleValue
6.139

@<SCITEGIC>MOL_PROPERTY
Valence
SciTegic.value.DoubleValue
148.931

@<SCITEGIC>MOL_PROPERTY
Coulomb
SciTegic.value.DoubleValue
126.608

@<SCITEGIC>MOL_PROPERTY
VdW
SciTegic.value.DoubleValue
-24.503

@<SCITEGIC>MOL_PROPERTY
VdW6
SciTegic.value.DoubleValue
-178.377

@<SCITEGIC>MOL_PROPERTY
VdW12
SciTegic.value.DoubleValue
153.874

@<SCITEGIC>MOL_PROPERTY
Bond
SciTegic.value.DoubleValue
4.540

@<SCITEGIC>MOL_PROPERTY
Angle
SciTegic.value.DoubleValue
11.747

@<SCITEGIC>MOL_PROPERTY
Pdih
SciTegic.value.DoubleValue
132.644

@<SCITEGIC>MOL_PROPERTY
Idih
SciTegic.value.DoubleValue
0.001

@<SCITEGIC>MOL_PROPERTY
Tether
SciTegic.value.DoubleValue
0.000

@<TRIPOS>MOLECULE
CD_guest-7_vm2_rndm.mol2 : vm2 host+ligand conformer 6
         145         150           2
SMALL
USER_CHARGES
 
@<TRIPOS>ATOM
       1    C1      16.145540   15.006623   21.456918 C.3        1 MOL1         0.2972
       2    H1      15.059201   14.852863   21.472386 H          1 MOL1         0.0751
       3    O1      16.490124   16.401623   21.347832 O.3        1 MOL1        -0.3740
       4    C2      16.780503   14.438190   22.748513 C.3        1 MOL1         0.1003
       5    H2      16.588686   13.357367   22.761799 H          1 MOL1         0.0783
       6    O2      16.204302   15.033749   23.918974 O.3        1 MOL1        -0.5519
       7    H3      16.798135   14.758291   24.653377 H          1 MOL1         0.3769
       8    C3      18.310803   14.650135   22.743351 C.3        1 MOL1         0.1053
       9    H4      18.504417   15.727189   22.826433 H          1 MOL1         0.0783
      10    O3      18.891226   13.961835   23.857607 O.3        1 MOL1        -0.5519
      11    H5      19.864536   13.920464   23.688124 H          1 MOL1         0.3769
      12    C4      18.957030   14.143322   21.429816 C.3        1 MOL1         0.1018
      13    H6      19.045614   13.050165   21.485838 H          1 MOL1         0.0783
      14    C5      18.165056   14.549580   20.153650 C.3        1 MOL1         0.1043
      15    H7      18.340904   15.617704   19.967172 H          1 MOL1         0.0783
      16    O4      16.745496   14.314567   20.341771 O.3        1 MOL1        -0.3740
      17    C6      18.604163   13.778805   18.888975 C.3        1 MOL1         0.0138
      18    H8      19.651868   14.019863   18.666345 H          1 MOL1         0.0794
      19    H9      18.002400   14.125279   18.038128 H          1 MOL1         0.0794
      20    O5      18.448347   12.367614   19.065251 O.3        1 MOL1        -0.5486
      21    H10     17.504176   12.222940   19.298061 H          1 MOL1         0.3769
      22    C7      14.906398   20.195250   20.819428 C.3        1 MOL1         0.2972
      23    H11     14.279597   21.058268   20.560524 H          1 MOL1         0.0751
      24    O6      16.235460   20.603973   21.200502 O.3        1 MOL1        -0.3740
      25    C8      14.269441   19.373720   21.972165 C.3        1 MOL1         0.1003
      26    H12     13.287284   19.030563   21.621792 H          1 MOL1         0.0783
      27    O7      14.094106   20.159959   23.157349 O.3        1 MOL1        -0.5519
      28    H13     13.783551   19.520392   23.837386 H          1 MOL1         0.3769
      29    C9      15.120190   18.123224   22.295854 C.3        1 MOL1         0.1053
      30    H14     16.076243   18.459739   22.721030 H          1 MOL1         0.0783
      31    O8      14.426411   17.304150   23.244994 O.3        1 MOL1        -0.5519
      32    H15     15.048136   16.575891   23.496065 H          1 MOL1         0.3769
      33    C10     15.422359   17.304826   21.015674 C.3        1 MOL1         0.1018
      34    H16     14.515718   16.774603   20.694949 H          1 MOL1         0.0783
      35    C11     15.923808   18.190470   19.846564 C.3        1 MOL1         0.1043
      36    H17     16.940424   18.534111   20.074346 H          1 MOL1         0.0783
      37    O9      15.027020   19.317039   19.680349 O.3        1 MOL1        -0.3740
      38    C12     15.953642   17.421127   18.509490 C.3        1 MOL1         0.0138
      39    H18     14.930655   17.129001   18.237302 H          1 MOL1         0.0794
      40    H19     16.541803   16.502650   18.630177 H          1 MOL1         0.0794
      41    O10     16.530246   18.236365   17.488160 O.3        1 MOL1        -0.5486
      42    H20     16.074379   19.105105   17.544877 H          1 MOL1         0.3769
      43    C13     18.505005   23.992351   21.943143 C.3        1 MOL1         0.2972
      44    H21     18.875808   24.995804   22.187778 H          1 MOL1         0.0751
      45    O11     19.553496   23.146105   21.432822 O.3        1 MOL1        -0.3740
      46    C14     17.885532   23.330555   23.198606 C.3        1 MOL1         0.1003
      47    H22     17.041073   23.957550   23.513086 H          1 MOL1         0.0783
      48    O12     18.828503   23.247024   24.275378 O.3        1 MOL1        -0.5519
      49    H23     18.413411   22.625665   24.915387 H          1 MOL1         0.3769
      50    C15     17.330531   21.927031   22.867385 C.3        1 MOL1         0.1053
      51    H24     18.174248   21.267106   22.623974 H          1 MOL1         0.0783
      52    O13     16.621062   21.428918   24.007356 O.3        1 MOL1        -0.5519
      53    H25     15.928695   20.815949   23.662194 H          1 MOL1         0.3769
      54    C16     16.384296   21.967426   21.642463 C.3        1 MOL1         0.1018
      55    H26     15.425046   22.400648   21.956766 H          1 MOL1         0.0783
      56    C17     16.976511   22.786523   20.459305 C.3        1 MOL1         0.1043
      57    H27     17.802736   22.210572   20.021791 H          1 MOL1         0.0783
      58    O14     17.471810   24.064163   20.936823 O.3        1 MOL1        -0.3740
      59    C18     15.959621   23.069924   19.331346 C.3        1 MOL1         0.0138
      60    H28     15.664364   22.119419   18.867778 H          1 MOL1         0.0794
      61    H29     16.452344   23.670674   18.555185 H          1 MOL1         0.0794
      62    O15     14.807686   23.754427   19.832484 O.3        1 MOL1        -0.5486
      63    H30     15.139017   24.578277   20.254324 H          1 MOL1         0.3769
      64    C19     23.612154   22.953292   20.859631 C.3        1 MOL1         0.2972
      65    H31     24.672545   23.078176   20.607777 H          1 MOL1         0.0751
      66    O16     23.292235   21.574954   21.151753 O.3        1 MOL1        -0.3740
      67    C20     23.209963   23.858423   22.052313 C.3        1 MOL1         0.1003
      68    H32     23.318207   24.898567   21.719222 H          1 MOL1         0.0783
      69    O17     24.079201   23.648420   23.174589 O.3        1 MOL1        -0.5519
      70    H33     23.865859   22.753131   23.537219 H          1 MOL1         0.3769
      71    C21     21.716088   23.631161   22.408687 C.3        1 MOL1         0.1053
      72    H34     21.607688   22.605968   22.789388 H          1 MOL1         0.0783
      73    O18     21.291434   24.564149   23.408999 O.3        1 MOL1        -0.5519
      74    H35     20.477045   24.175966   23.813887 H          1 MOL1         0.3769
      75    C22     20.813467   23.781716   21.150094 C.3        1 MOL1         0.1018
      76    H36     20.684099   24.847601   20.919254 H          1 MOL1         0.0783
      77    C23     21.377008   23.074445   19.887491 C.3        1 MOL1         0.1043
      78    H37     21.217029   21.993756   19.984137 H          1 MOL1         0.0783
      79    O19     22.790870   23.361511   19.747201 O.3        1 MOL1        -0.3740
      80    C24     20.670655   23.550754   18.601339 C.3        1 MOL1         0.0138
      81    H38     20.865457   24.621766   18.456623 H          1 MOL1         0.0794
      82    H39     19.586190   23.419840   18.714777 H          1 MOL1         0.0794
      83    O20     21.138012   22.800581   17.478890 O.3        1 MOL1        -0.5486
      84    H40     22.119562   22.811444   17.535173 H          1 MOL1         0.3769
      85    C25     24.786461   17.877170   22.185876 C.3        1 MOL1         0.2972
      86    H41     25.389592   17.015706   22.498837 H          1 MOL1         0.0751
      87    O21     23.529048   17.465486   21.609529 O.3        1 MOL1        -0.3740
      88    C26     24.497471   18.793005   23.399761 C.3        1 MOL1         0.1003
      89    H42     25.463748   19.145049   23.783263 H          1 MOL1         0.0783
      90    O22     23.834315   18.035966   24.427310 O.3        1 MOL1        -0.5519
      91    H43     23.248844   18.653312   24.938580 H          1 MOL1         0.3769
      92    C27     23.681577   20.039377   22.964035 C.3        1 MOL1         0.1053
      93    H44     22.673329   19.710039   22.683353 H          1 MOL1         0.0783
      94    O23     23.606422   20.971327   24.049249 O.3        1 MOL1        -0.5519
      95    H45     22.986557   20.580878   24.719856 H          1 MOL1         0.3769
      96    C28     24.317248   20.744854   21.732194 C.3        1 MOL1         0.1018
      97    H46     25.184435   21.331936   22.062910 H          1 MOL1         0.0783
      98    C29     24.750804   19.749892   20.621086 C.3        1 MOL1         0.1043
      99    H47     23.848388   19.372199   20.122721 H          1 MOL1         0.0783
     100    O24     25.499653   18.658242   21.207042 O.3        1 MOL1        -0.3740
     101    C30     25.651736   20.400952   19.551705 C.3        1 MOL1         0.0138
     102    H48     26.586558   20.736685   20.020234 H          1 MOL1         0.0794
     103    H49     25.146712   21.282024   19.134994 H          1 MOL1         0.0794
     104    O25     25.920593   19.462111   18.508552 O.3        1 MOL1        -0.5486
     105    H50     26.165171   18.619467   18.954554 H          1 MOL1         0.3769
     106    C31     21.358330   13.958541   20.982924 C.3        1 MOL1         0.2972
     107    H51     21.038801   12.947575   20.699410 H          1 MOL1         0.0751
     108    O26     20.241568   14.787057   21.356093 O.3        1 MOL1        -0.3740
     109    C32     22.346452   13.909631   22.176649 C.3        1 MOL1         0.1003
     110    H52     23.217787   13.321871   21.859864 H          1 MOL1         0.0783
     111    O27     21.751066   13.291364   23.325766 O.3        1 MOL1        -0.5519
     112    H53     22.399136   13.443943   24.050217 H          1 MOL1         0.3769
     113    C33     22.835897   15.330665   22.544010 C.3        1 MOL1         0.1053
     114    H54     21.972625   15.898255   22.915910 H          1 MOL1         0.0783
     115    O28     23.828345   15.236732   23.573106 O.3        1 MOL1        -0.5519
     116    H55     23.886119   16.139978   23.974299 H          1 MOL1         0.3769
     117    C34     23.397092   16.066225   21.295564 C.3        1 MOL1         0.1018
     118    H56     24.362992   15.629338   21.009472 H          1 MOL1         0.0783
     119    C35     22.426160   15.974007   20.087499 C.3        1 MOL1         0.1043
     120    H57     21.540664   16.587812   20.301985 H          1 MOL1         0.0783
     121    O29     22.033412   14.594329   19.877080 O.3        1 MOL1        -0.3740
     122    C36     23.051462   16.485081   18.770062 C.3        1 MOL1         0.0138
     123    H58     23.338193   17.537603   18.890629 H          1 MOL1         0.0794
     124    H59     22.290690   16.441407   17.979432 H          1 MOL1         0.0794
     125    O30     24.192079   15.701988   18.404625 O.3        1 MOL1        -0.5486
     126    H60     23.887391   14.767543   18.397212 H          1 MOL1         0.3769
     127    C1      20.647413   19.387142   25.564697 C.2        1 MOL1         0.6115
     128    O1      21.845200   19.580565   25.661562 O.co2      1 MOL1        -0.6776
     129    O2      19.941507   19.040946   26.490991 O.co2      1 MOL1        -0.6776
     130    C2      20.004866   19.572421   24.194020 C.3        1 MOL1        -0.2013
     131    H1      20.485882   20.429810   23.711118 H          1 MOL1         0.0727
     132    H2      18.952830   19.835419   24.350435 H          1 MOL1         0.0727
     133    C3      20.104256   18.305299   23.305333 C.3        1 MOL1        -0.1910
     134    H3      21.156024   18.014695   23.194081 H          1 MOL1         0.0729
     135    H4      19.609704   17.477503   23.829981 H          1 MOL1         0.0729
     136    C4      19.460362   18.475911   21.908790 C.3        1 MOL1        -0.1909
     137    H5      18.435262   18.852775   22.018586 H          1 MOL1         0.0729
     138    H6      19.380254   17.489211   21.435115 H          1 MOL1         0.0729
     139    C5      20.268993   19.407024   20.979034 C.3        1 MOL1        -0.1884
     140    H7      20.338080   20.409332   21.419130 H          1 MOL1         0.0729
     141    H8      21.295008   19.029380   20.881863 H          1 MOL1         0.0729
     142    C6      19.633113   19.509269   19.578449 C.3        1 MOL1        -0.2899
     143    H9      18.645521   19.982711   19.632474 H          1 MOL1         0.0741
     144    H10     20.259216   20.113631   18.909969 H          1 MOL1         0.0741
     145    H11     19.514715   18.516748   19.124878 H          1 MOL1         0.0741
@<TRIPOS>BOND
    1     1     2    1
    2     1     3    1
    3     1     4    1
    4     4     5    1
    5     4     6    1
    6     6     7    1
    7     4     8    1
    8     8     9    1
    9     8    10    1
   10    10    11    1
   11     8    12    1
   12    12    13    1
   13    12    14    1
   14    14    15    1
   15     1    16    1
   16    14    16    1
   17    14    17    1
   18    17    18    1
   19    17    19    1
   20    17    20    1
   21    20    21    1
   22    22    23    1
   23    22    24    1
   24    22    25    1
   25    25    26    1
   26    25    27    1
   27    27    28    1
   28    25    29    1
   29    29    30    1
   30    29    31    1
   31    31    32    1
   32     3    33    1
   33    29    33    1
   34    33    34    1
   35    33    35    1
   36    35    36    1
   37    22    37    1
   38    35    37    1
   39    35    38    1
   40    38    39    1
   41    38    40    1
   42    38    41    1
   43    41    42    1
   44    43    44    1
   45    43    45    1
   46    43    46    1
   47    46    47    1
   48    46    48    1
   49    48    49    1
   50    46    50    1
   51    50    51    1
   52    50    52    1
   53    52    53    1
   54    24    54    1
   55    50    54    1
   56    54    55    1
   57    54    56    1
   58    56    57    1
   59    43    58    1
   60    56    58    1
   61    56    59    1
   62    59    60    1
   63    59    61    1
   64    59    62    1
   65    62    63    1
   66    64    65    1
   67    64    66    1
   68    64    67    1
   69    67    68    1
   70    67    69    1
   71    69    70    1
   72    67    71    1
   73    71    72    1
   74    71    73    1
   75    73    74    1
   76    45    75    1
   77    71    75    1
   78    75    76    1
   79    75    77    1
   80    77    78    1
   81    64    79    1
   82    77    79    1
   83    77    80    1
   84    80    81    1
   85    80    82    1
   86    80    83    1
   87    83    84    1
   88    85    86    1
   89    85    87    1
   90    85    88    1
   91    88    89    1
   92    88    90    1
   93    90    91    1
   94    88    92    1
   95    92    93    1
   96    92    94    1
   97    94    95    1
   98    66    96    1
   99    92    96    1
  100    96    97    1
  101    96    98    1
  102    98    99    1
  103    85   100    1
  104    98   100    1
  105    98   101    1
  106   101   102    1
  107   101   103    1
  108   101   104    1
  109   104   105    1
  110   106   107    1
  111    12   108    1
  112   106   108    1
  113   106   109    1
  114   109   110    1
  115   109   111    1
  116   111   112    1
  117   109   113    1
  118   113   114    1
  119   113   115    1
  120   115   116    1
  121    87   117    1
  122   113   117    1
  123   117   118    1
  124   117   119    1
  125   119   120    1
  126   106   121    1
  127   119   121    1
  128   119   122    1
  129   122   123    1
  130   122   124    1
  131   122   125    1
  132   125   126    1
  133   127   128    1
  134   127   129    2
  135   127   130    1
  136   130   131    1
  137   130   132    1
  138   130   133    1
  139   133   134    1
  140   133   135    1
  141   133   136    1
  142   136   137    1
  143   136   138    1
  144   136   139    1
  145   139   140    1
  146   139   141    1
  147   139   142    1
  148   142   143    1
  149   142   144    1
  150   142   145    1
@<TRIPOS>SUBSTRUCTURE
       1 MOL1            1 RESIDUE      1      MOL     
       2 MOL1          145 RESIDUE      1      MOL     
@<SCITEGIC>MOL_PROPERTY
VM2 Rank
SciTegic.value.IntegerValue
6

@<SCITEGIC>MOL_PROPERTY
Conf_Id
SciTegic.value.IntegerValue
20982

@<SCITEGIC>MOL_PROPERTY
Probability
SciTegic.value.DoubleValue
1.57

@<SCITEGIC>MOL_PROPERTY
Sum Probability
SciTegic.value.DoubleValue
14.82

@<SCITEGIC>MOL_PROPERTY
Delta G
SciTegic.value.DoubleValue
0.604

@<SCITEGIC>MOL_PROPERTY
G
SciTegic.value.DoubleValue
489.394

@<SCITEGIC>MOL_PROPERTY
E
SciTegic.value.DoubleValue
302.378

@<SCITEGIC>MOL_PROPERTY
-TS
SciTegic.value.DoubleValue
187.016

@<SCITEGIC>MOL_PROPERTY
U+W
SciTegic.value.DoubleValue
174.501

@<SCITEGIC>MOL_PROPERTY
U
SciTegic.value.DoubleValue
249.762

@<SCITEGIC>MOL_PROPERTY
W
SciTegic.value.DoubleValue
-75.261

@<SCITEGIC>MOL_PROPERTY
W(PB)
SciTegic.value.DoubleValue
-81.346

@<SCITEGIC>MOL_PROPERTY
W(SA)
SciTegic.value.DoubleValue
6.085

@<SCITEGIC>MOL_PROPERTY
Valence
SciTegic.value.DoubleValue
150.307

@<SCITEGIC>MOL_PROPERTY
Coulomb
SciTegic.value.DoubleValue
124.598

@<SCITEGIC>MOL_PROPERTY
VdW
SciTegic.value.DoubleValue
-25.143

@<SCITEGIC>MOL_PROPERTY
VdW6
SciTegic.value.DoubleValue
-177.988

@<SCITEGIC>MOL_PROPERTY
VdW12
SciTegic.value.DoubleValue
152.845

@<SCITEGIC>MOL_PROPERTY
Bond
SciTegic.value.DoubleValue
4.499

@<SCITEGIC>MOL_PROPERTY
Angle
SciTegic.value.DoubleValue
11.543

@<SCITEGIC>MOL_PROPERTY
Pdih
SciTegic.value.DoubleValue
134.264

@<SCITEGIC>MOL_PROPERTY
Idih
SciTegic.value.DoubleValue
0.001

@<SCITEGIC>MOL_PROPERTY
Tether
SciTegic.value.DoubleValue
0.000

@<TRIPOS>MOLECULE
CD_guest-7_vm2_rndm.mol2 : vm2 host+ligand conformer 7
         145         150           2
SMALL
USER_CHARGES
 
@<TRIPOS>ATOM
       1    C1      16.144842   14.985175   21.476514 C.3        1 MOL1         0.2972
       2    H1      15.057977   14.835046   21.490687 H          1 MOL1         0.0751
       3    O1      16.494148   16.378000   21.354172 O.3        1 MOL1        -0.3740
       4    C2      16.774814   14.426818   22.775013 C.3        1 MOL1         0.1003
       5    H2      16.579701   13.346739   22.797685 H          1 MOL1         0.0783
       6    O2      16.197849   15.034473   23.938779 O.3        1 MOL1        -0.5519
       7    H3      16.789413   14.763914   24.676855 H          1 MOL1         0.3769
       8    C3      18.305687   14.633944   22.771800 C.3        1 MOL1         0.1053
       9    H4      18.502507   15.711174   22.844409 H          1 MOL1         0.0783
      10    O3      18.880868   13.955083   23.894536 O.3        1 MOL1        -0.5519
      11    H5      19.854685   13.909998   23.728891 H          1 MOL1         0.3769
      12    C4      18.953506   14.111840   21.465135 C.3        1 MOL1         0.1018
      13    H6      19.038223   13.018999   21.532196 H          1 MOL1         0.0783
      14    C5      18.166148   14.508121   20.182989 C.3        1 MOL1         0.1043
      15    H7      18.346334   15.573662   19.986256 H          1 MOL1         0.0783
      16    O4      16.745216   14.280218   20.369676 O.3        1 MOL1        -0.3740
      17    C6      18.605825   13.722995   18.927385 C.3        1 MOL1         0.0138
      18    H8      19.655218   13.957448   18.705619 H          1 MOL1         0.0794
      19    H9      18.008068   14.063453   18.071304 H          1 MOL1         0.0794
      20    O5      18.443575   12.314294   19.117255 O.3        1 MOL1        -0.5486
      21    H10     17.498167   12.175912   19.348892 H          1 MOL1         0.3769
      22    C7      14.915435   20.171093   20.795742 C.3        1 MOL1         0.2972
      23    H11     14.288616   21.031759   20.529202 H          1 MOL1         0.0751
      24    O6      16.243812   20.583392   21.174861 O.3        1 MOL1        -0.3740
      25    C8      14.277472   19.359192   21.954732 C.3        1 MOL1         0.1003
      26    H12     13.294545   19.015375   21.607179 H          1 MOL1         0.0783
      27    O7      14.104146   20.154671   23.134128 O.3        1 MOL1        -0.5519
      28    H13     13.791976   19.520952   23.818863 H          1 MOL1         0.3769
      29    C9      15.125561   18.109418   22.288155 C.3        1 MOL1         0.1053
      30    H14     16.081336   18.447181   22.712982 H          1 MOL1         0.0783
      31    O8      14.427966   17.298533   23.241466 O.3        1 MOL1        -0.5519
      32    H15     15.047931   16.571427   23.500116 H          1 MOL1         0.3769
      33    C10     15.429060   17.281657   21.014224 C.3        1 MOL1         0.1018
      34    H16     14.522066   16.751424   20.694523 H          1 MOL1         0.0783
      35    C11     15.934936   18.159077   19.840904 C.3        1 MOL1         0.1043
      36    H17     16.950514   18.504721   20.070226 H          1 MOL1         0.0783
      37    O9      15.038201   19.283983   19.663805 O.3        1 MOL1        -0.3740
      38    C12     15.970816   17.380991   18.509083 C.3        1 MOL1         0.0138
      39    H18     14.949226   17.086125   18.234612 H          1 MOL1         0.0794
      40    H19     16.559371   16.463890   18.638231 H          1 MOL1         0.0794
      41    O10     16.550950   18.190368   17.484978 O.3        1 MOL1        -0.5486
      42    H20     16.091315   19.057680   17.532055 H          1 MOL1         0.3769
      43    C13     18.517050   23.973140   21.882307 C.3        1 MOL1         0.2972
      44    H21     18.892391   24.977411   22.116441 H          1 MOL1         0.0751
      45    O11     19.560459   23.118994   21.373463 O.3        1 MOL1        -0.3740
      46    C14     17.902228   23.323446   23.146392 C.3        1 MOL1         0.1003
      47    H22     17.060811   23.955123   23.459646 H          1 MOL1         0.0783
      48    O12     18.849921   23.246258   24.219537 O.3        1 MOL1        -0.5519
      49    H23     18.436147   22.631525   24.866712 H          1 MOL1         0.3769
      50    C15     17.342049   21.918665   22.828955 C.3        1 MOL1         0.1053
      51    H24     18.183377   21.254868   22.587913 H          1 MOL1         0.0783
      52    O13     16.635422   21.431243   23.975349 O.3        1 MOL1        -0.5519
      53    H25     15.942350   20.815013   23.637504 H          1 MOL1         0.3769
      54    C16     16.391019   21.949976   21.607378 C.3        1 MOL1         0.1018
      55    H26     15.432066   22.382950   21.922918 H          1 MOL1         0.0783
      56    C17     16.976163   22.762382   20.416255 C.3        1 MOL1         0.1043
      57    H27     17.798977   22.183590   19.976523 H          1 MOL1         0.0783
      58    O14     17.475923   24.041081   20.884112 O.3        1 MOL1        -0.3740
      59    C18     15.952819   23.042093   19.293204 C.3        1 MOL1         0.0138
      60    H28     15.655574   22.090248   18.833728 H          1 MOL1         0.0794
      61    H29     16.441104   23.641269   18.512959 H          1 MOL1         0.0794
      62    O15     14.803200   23.727326   19.798608 O.3        1 MOL1        -0.5486
      63    H30     15.136363   24.553547   20.214364 H          1 MOL1         0.3769
      64    C19     23.617642   22.901514   20.795039 C.3        1 MOL1         0.2972
      65    H31     24.678632   23.017901   20.541645 H          1 MOL1         0.0751
      66    O16     23.292888   21.529160   21.108632 O.3        1 MOL1        -0.3740
      67    C20     23.220071   23.827139   21.973914 C.3        1 MOL1         0.1003
      68    H32     23.331913   24.861640   21.624803 H          1 MOL1         0.0783
      69    O17     24.090369   23.629732   23.097823 O.3        1 MOL1        -0.5519
      70    H33     23.873141   22.741109   23.474363 H          1 MOL1         0.3769
      71    C21     21.726143   23.611728   22.337344 C.3        1 MOL1         0.1053
      72    H34     21.614279   22.590982   22.728753 H          1 MOL1         0.0783
      73    O18     21.309493   24.555668   23.330901 O.3        1 MOL1        -0.5519
      74    H35     20.495160   24.174434   23.742274 H          1 MOL1         0.3769
      75    C22     20.819945   23.752664   21.080376 C.3        1 MOL1         0.1018
      76    H36     20.689146   24.816633   20.842256 H          1 MOL1         0.0783
      77    C23     21.382141   23.030269   19.824331 C.3        1 MOL1         0.1043
      78    H37     21.219576   21.952532   19.943281 H          1 MOL1         0.0783
      79    O19     22.799877   23.292842   19.674500 O.3        1 MOL1        -0.3740
      80    C24     20.679065   23.463294   18.519106 C.3        1 MOL1         0.0138
      81    H38     19.603576   23.259567   18.607341 H          1 MOL1         0.0794
      82    H39     21.063819   22.851620   17.692222 H          1 MOL1         0.0794
      83    O20     20.898652   24.851848   18.252886 O.3        1 MOL1        -0.5486
      84    H40     21.873183   24.980884   18.272430 H          1 MOL1         0.3769
      85    C25     24.786168   17.844004   22.189614 C.3        1 MOL1         0.2972
      86    H41     25.389070   16.986508   22.513760 H          1 MOL1         0.0751
      87    O21     23.528494   17.425182   21.619062 O.3        1 MOL1        -0.3740
      88    C26     24.498083   18.775880   23.391492 C.3        1 MOL1         0.1003
      89    H42     25.464696   19.132060   23.770296 H          1 MOL1         0.0783
      90    O22     23.834421   18.032654   24.428708 O.3        1 MOL1        -0.5519
      91    H43     23.248944   18.656981   24.931432 H          1 MOL1         0.3769
      92    C27     23.683051   20.017203   22.939938 C.3        1 MOL1         0.1053
      93    H44     22.674257   19.685107   22.664691 H          1 MOL1         0.0783
      94    O23     23.609806   20.964245   24.012208 O.3        1 MOL1        -0.5519
      95    H45     22.989176   20.584057   24.688000 H          1 MOL1         0.3769
      96    C28     24.317943   20.705419   21.698206 C.3        1 MOL1         0.1018
      97    H46     25.186134   21.295762   22.020411 H          1 MOL1         0.0783
      98    C29     24.749636   19.695424   20.600046 C.3        1 MOL1         0.1043
      99    H47     23.846363   19.311319   20.108296 H          1 MOL1         0.0783
     100    O24     25.498893   18.611696   21.199951 O.3        1 MOL1        -0.3740
     101    C30     25.649167   20.330929   19.520189 C.3        1 MOL1         0.0138
     102    H48     26.585493   20.671564   19.982141 H          1 MOL1         0.0794
     103    H49     25.144508   21.207033   19.092660 H          1 MOL1         0.0794
     104    O25     25.914230   19.377702   18.489148 O.3        1 MOL1        -0.5486
     105    H50     26.160194   18.541156   18.945786 H          1 MOL1         0.3769
     106    C31     21.356060   13.914221   21.029816 C.3        1 MOL1         0.2972
     107    H51     21.034833   12.900415   20.758647 H          1 MOL1         0.0751
     108    O26     20.240319   14.750620   21.388336 O.3        1 MOL1        -0.3740
     109    C32     22.340510   13.878635   22.227075 C.3        1 MOL1         0.1003
     110    H52     23.211803   13.285492   21.920360 H          1 MOL1         0.0783
     111    O27     21.740671   13.275912   23.382082 O.3        1 MOL1        -0.5519
     112    H53     22.386860   13.436444   24.106500 H          1 MOL1         0.3769
     113    C33     22.831191   15.303408   22.577856 C.3        1 MOL1         0.1053
     114    H54     21.967733   15.876961   22.940035 H          1 MOL1         0.0783
     115    O28     23.820666   15.221453   23.610835 O.3        1 MOL1        -0.5519
     116    H55     23.879988   16.130120   23.999367 H          1 MOL1         0.3769
     117    C34     23.397234   16.022236   21.321977 C.3        1 MOL1         0.1018
     118    H56     24.363996   15.581218   21.045270 H          1 MOL1         0.0783
     119    C35     22.431089   15.915254   20.111293 C.3        1 MOL1         0.1043
     120    H57     21.545941   16.533636   20.313754 H          1 MOL1         0.0783
     121    O29     22.036351   14.533668   19.917948 O.3        1 MOL1        -0.3740
     122    C36     23.062867   16.407098   18.789632 C.3        1 MOL1         0.0138
     123    H58     23.350896   17.460666   18.896959 H          1 MOL1         0.0794
     124    H59     22.305434   16.353718   17.996402 H          1 MOL1         0.0794
     125    O30     24.203777   15.617357   18.439846 O.3        1 MOL1        -0.5486
     126    H60     23.897629   14.683362   18.443631 H          1 MOL1         0.3769
     127    C1      20.648584   19.394007   25.540845 C.2        1 MOL1         0.6115
     128    O1      21.845040   19.594793   25.639042 O.co2      1 MOL1        -0.6776
     129    O2      19.942921   19.048211   26.467464 O.co2      1 MOL1        -0.6776
     130    C2      20.007593   19.568745   24.168051 C.3        1 MOL1        -0.2013
     131    H1      20.490329   20.421199   23.678155 H          1 MOL1         0.0727
     132    H2      18.955995   19.834860   24.321765 H          1 MOL1         0.0727
     133    C3      20.104871   18.293872   23.290278 C.3        1 MOL1        -0.1910
     134    H3      21.155890   17.999035   23.183372 H          1 MOL1         0.0729
     135    H4      19.607004   17.472203   23.821344 H          1 MOL1         0.0729
     136    C4      19.463521   18.454369   21.891323 C.3        1 MOL1        -0.1909
     137    H5      18.440400   18.837806   21.996592 H          1 MOL1         0.0729
     138    H6      19.378540   17.463393   21.427403 H          1 MOL1         0.0729
     139    C5      20.278306   19.372049   20.953527 C.3        1 MOL1        -0.1884
     140    H7      20.354077   20.377347   21.385711 H          1 MOL1         0.0729
     141    H8      21.301716   18.986280   20.860442 H          1 MOL1         0.0729
     142    C6      19.643420   19.466298   19.551813 C.3        1 MOL1        -0.2899
     143    H9      20.276895   20.054516   18.876786 H          1 MOL1         0.0741
     144    H10     19.513435   18.469806   19.110029 H          1 MOL1         0.0741
     145    H11     18.660771   19.950785   19.601231 H          1 MOL1         0.0741
@<TRIPOS>BOND
    1     1     2    1
    2     1     3    1
    3     1     4    1
    4     4     5    1
    5     4     6    1
    6     6     7    1
    7     4     8    1
    8     8     9    1
    9     8    10    1
   10    10    11    1
   11     8    12    1
   12    12    13    1
   13    12    14    1
   14    14    15    1
   15     1    16    1
   16    14    16    1
   17    14    17    1
   18    17    18    1
   19    17    19    1
   20    17    20    1
   21    20    21    1
   22    22    23    1
   23    22    24    1
   24    22    25    1
   25    25    26    1
   26    25    27    1
   27    27    28    1
   28    25    29    1
   29    29    30    1
   30    29    31    1
   31    31    32    1
   32     3    33    1
   33    29    33    1
   34    33    34    1
   35    33    35    1
   36    35    36    1
   37    22    37    1
   38    35    37    1
   39    35    38    1
   40    38    39    1
   41    38    40    1
   42    38    41    1
   43    41    42    1
   44    43    44    1
   45    43    45    1
   46    43    46    1
   47    46    47    1
   48    46    48    1
   49    48    49    1
   50    46    50    1
   51    50    51    1
   52    50    52    1
   53    52    53    1
   54    24    54    1
   55    50    54    1
   56    54    55    1
   57    54    56    1
   58    56    57    1
   59    43    58    1
   60    56    58    1
   61    56    59    1
   62    59    60    1
   63    59    61    1
   64    59    62    1
   65    62    63    1
   66    64    65    1
   67    64    66    1
   68    64    67    1
   69    67    68    1
   70    67    69    1
   71    69    70    1
   72    67    71    1
   73    71    72    1
   74    71    73    1
   75    73    74    1
   76    45    75    1
   77    71    75    1
   78    75    76    1
   79    75    77    1
   80    77    78    1
   81    64    79    1
   82    77    79    1
   83    77    80    1
   84    80    81    1
   85    80    82    1
   86    80    83    1
   87    83    84    1
   88    85    86    1
   89    85    87    1
   90    85    88    1
   91    88    89    1
   92    88    90    1
   93    90    91    1
   94    88    92    1
   95    92    93    1
   96    92    94    1
   97    94    95    1
   98    66    96    1
   99    92    96    1
  100    96    97    1
  101    96    98    1
  102    98    99    1
  103    85   100    1
  104    98   100    1
  105    98   101    1
  106   101   102    1
  107   101   103    1
  108   101   104    1
  109   104   105    1
  110   106   107    1
  111    12   108    1
  112   106   108    1
  113   106   109    1
  114   109   110    1
  115   109   111    1
  116   111   112    1
  117   109   113    1
  118   113   114    1
  119   113   115    1
  120   115   116    1
  121    87   117    1
  122   113   117    1
  123   117   118    1
  124   117   119    1
  125   119   120    1
  126   106   121    1
  127   119   121    1
  128   119   122    1
  129   122   123    1
  130   122   124    1
  131   122   125    1
  132   125   126    1
  133   127   128    1
  134   127   129    2
  135   127   130    1
  136   130   131    1
  137   130   132    1
  138   130   133    1
  139   133   134    1
  140   133   135    1
  141   133   136    1
  142   136   137    1
  143   136   138    1
  144   136   139    1
  145   139   140    1
  146   139   141    1
  147   139   142    1
  148   142   143    1
  149   142   144    1
  150   142   145    1
@<TRIPOS>SUBSTRUCTURE
       1 MOL1            1 RESIDUE      1      MOL     
       2 MOL1          145 RESIDUE      1      MOL     
@<SCITEGIC>MOL_PROPERTY
VM2 Rank
SciTegic.value.IntegerValue
7

@<SCITEGIC>MOL_PROPERTY
Conf_Id
SciTegic.value.IntegerValue
19898

@<SCITEGIC>MOL_PROPERTY
Probability
SciTegic.value.DoubleValue
1.53

@<SCITEGIC>MOL_PROPERTY
Sum Probability
SciTegic.value.DoubleValue
16.36

@<SCITEGIC>MOL_PROPERTY
Delta G
SciTegic.value.DoubleValue
0.617

@<SCITEGIC>MOL_PROPERTY
G
SciTegic.value.DoubleValue
489.407

@<SCITEGIC>MOL_PROPERTY
E
SciTegic.value.DoubleValue
302.214

@<SCITEGIC>MOL_PROPERTY
-TS
SciTegic.value.DoubleValue
187.193

@<SCITEGIC>MOL_PROPERTY
U+W
SciTegic.value.DoubleValue
174.337

@<SCITEGIC>MOL_PROPERTY
U
SciTegic.value.DoubleValue
249.046

@<SCITEGIC>MOL_PROPERTY
W
SciTegic.value.DoubleValue
-74.709

@<SCITEGIC>MOL_PROPERTY
W(PB)
SciTegic.value.DoubleValue
-80.836

@<SCITEGIC>MOL_PROPERTY
W(SA)
SciTegic.value.DoubleValue
6.127

@<SCITEGIC>MOL_PROPERTY
Valence
SciTegic.value.DoubleValue
150.063

@<SCITEGIC>MOL_PROPERTY
Coulomb
SciTegic.value.DoubleValue
123.815

@<SCITEGIC>MOL_PROPERTY
VdW
SciTegic.value.DoubleValue
-24.832

@<SCITEGIC>MOL_PROPERTY
VdW6
SciTegic.value.DoubleValue
-178.282

@<SCITEGIC>MOL_PROPERTY
VdW12
SciTegic.value.DoubleValue
153.450

@<SCITEGIC>MOL_PROPERTY
Bond
SciTegic.value.DoubleValue
4.521

@<SCITEGIC>MOL_PROPERTY
Angle
SciTegic.value.DoubleValue
11.616

@<SCITEGIC>MOL_PROPERTY
Pdih
SciTegic.value.DoubleValue
133.925

@<SCITEGIC>MOL_PROPERTY
Idih
SciTegic.value.DoubleValue
0.001

@<SCITEGIC>MOL_PROPERTY
Tether
SciTegic.value.DoubleValue
0.000

@<TRIPOS>MOLECULE
CD_guest-7_vm2_rndm.mol2 : vm2 host+ligand conformer 8
         145         150           2
SMALL
USER_CHARGES
 
@<TRIPOS>ATOM
       1    C1      16.189824   15.296930   21.716940 C.3        1 MOL1         0.2972
       2    H1      15.119927   15.125719   21.890869 H          1 MOL1         0.0751
       3    O1      16.441535   16.619257   21.202730 O.3        1 MOL1        -0.3740
       4    C2      16.984108   15.102504   23.032422 C.3        1 MOL1         0.1003
       5    H2      16.835246   14.062423   23.350570 H          1 MOL1         0.0783
       6    O2      16.519505   15.976074   24.069864 O.3        1 MOL1        -0.5519
       7    H3      17.220231   15.930362   24.759050 H          1 MOL1         0.3769
       8    C3      18.497649   15.310233   22.801203 C.3        1 MOL1         0.1053
       9    H4      18.671114   16.366519   22.554669 H          1 MOL1         0.0783
      10    O3      19.202341   14.954964   23.996334 O.3        1 MOL1        -0.5519
      11    H5      20.101350   14.659306   23.715782 H          1 MOL1         0.3769
      12    C4      19.011831   14.450997   21.620656 C.3        1 MOL1         0.1018
      13    H6      19.085663   13.407521   21.955882 H          1 MOL1         0.0783
      14    C5      18.090532   14.544426   20.370013 C.3        1 MOL1         0.1043
      15    H7      18.213207   15.541204   19.925962 H          1 MOL1         0.0783
      16    O4      16.705465   14.349686   20.756624 O.3        1 MOL1        -0.3740
      17    C6      18.422231   13.504547   19.276630 C.3        1 MOL1         0.0138
      18    H8      19.423989   13.711105   18.877259 H          1 MOL1         0.0794
      19    H9      17.711214   13.624893   18.448338 H          1 MOL1         0.0794
      20    O5      18.361078   12.172045   19.793744 O.3        1 MOL1        -0.5486
      21    H10     17.454080   12.058705   20.155660 H          1 MOL1         0.3769
      22    C7      14.655936   20.247961   20.504485 C.3        1 MOL1         0.2972
      23    H11     14.047900   21.112853   20.209876 H          1 MOL1         0.0751
      24    O6      15.990191   20.641995   20.889529 O.3        1 MOL1        -0.3740
      25    C8      13.989975   19.457791   21.661084 C.3        1 MOL1         0.1003
      26    H12     13.048913   19.047523   21.273096 H          1 MOL1         0.0783
      27    O7      13.689979   20.318726   22.769849 O.3        1 MOL1        -0.5519
      28    H13     14.555840   20.583996   23.168345 H          1 MOL1         0.3769
      29    C9      14.891184   18.263365   22.075955 C.3        1 MOL1         0.1053
      30    H14     15.810256   18.669189   22.521464 H          1 MOL1         0.0783
      31    O8      14.216806   17.436823   23.031793 O.3        1 MOL1        -0.5519
      32    H15     14.925188   16.926055   23.495523 H          1 MOL1         0.3769
      33    C10     15.288165   17.401965   20.842316 C.3        1 MOL1         0.1018
      34    H16     14.442033   16.763448   20.555169 H          1 MOL1         0.0783
      35    C11     15.709786   18.239015   19.604184 C.3        1 MOL1         0.1043
      36    H17     16.720471   18.631795   19.768238 H          1 MOL1         0.0783
      37    O9      14.775951   19.328320   19.399961 O.3        1 MOL1        -0.3740
      38    C12     15.729722   17.388213   18.317449 C.3        1 MOL1         0.0138
      39    H18     14.713916   17.029252   18.104725 H          1 MOL1         0.0794
      40    H19     16.369409   16.509542   18.475181 H          1 MOL1         0.0794
      41    O10     16.226121   18.163616   17.224927 O.3        1 MOL1        -0.5486
      42    H20     15.722387   19.007711   17.241385 H          1 MOL1         0.3769
      43    C13     18.384483   23.793285   21.997008 C.3        1 MOL1         0.2972
      44    H21     18.823472   24.746175   22.317745 H          1 MOL1         0.0751
      45    O11     19.387391   22.893272   21.476839 O.3        1 MOL1        -0.3740
      46    C14     17.675576   23.104978   23.189451 C.3        1 MOL1         0.1003
      47    H22     16.868193   23.770446   23.521262 H          1 MOL1         0.0783
      48    O12     18.609419   22.926037   24.268843 O.3        1 MOL1        -0.5519
      49    H23     18.345660   22.114481   24.776029 H          1 MOL1         0.3769
      50    C15     17.029394   21.767279   22.741367 C.3        1 MOL1         0.1053
      51    H24     17.832519   21.058931   22.502797 H          1 MOL1         0.0783
      52    O13     16.211344   21.241883   23.794466 O.3        1 MOL1        -0.5519
      53    H25     16.827968   20.911471   24.499117 H          1 MOL1         0.3769
      54    C16     16.155549   21.949759   21.470095 C.3        1 MOL1         0.1018
      55    H26     15.195631   22.393601   21.765408 H          1 MOL1         0.0783
      56    C17     16.830314   22.827812   20.379737 C.3        1 MOL1         0.1043
      57    H27     17.632975   22.236463   19.920966 H          1 MOL1         0.0783
      58    O14     17.398358   24.020729   20.970669 O.3        1 MOL1        -0.3740
      59    C18     15.871646   23.251951   19.241269 C.3        1 MOL1         0.0138
      60    H28     15.643433   22.367159   18.631770 H          1 MOL1         0.0794
      61    H29     16.394930   23.967745   18.593099 H          1 MOL1         0.0794
      62    O15     14.655990   23.825683   19.738929 O.3        1 MOL1        -0.5486
      63    H30     14.138073   24.142239   18.966873 H          1 MOL1         0.3769
      64    C19     23.546815   22.716969   21.112427 C.3        1 MOL1         0.2972
      65    H31     24.597641   22.936843   20.884427 H          1 MOL1         0.0751
      66    O16     23.363076   21.347534   21.515633 O.3        1 MOL1        -0.3740
      67    C20     23.029383   23.629744   22.253728 C.3        1 MOL1         0.1003
      68    H32     23.134920   24.669518   21.917948 H          1 MOL1         0.0783
      69    O17     23.787182   23.441024   23.457267 O.3        1 MOL1        -0.5519
      70    H33     23.292962   23.947202   24.140961 H          1 MOL1         0.3769
      71    C21     21.530342   23.367929   22.535926 C.3        1 MOL1         0.1053
      72    H34     21.436941   22.349405   22.935311 H          1 MOL1         0.0783
      73    O18     21.065290   24.310146   23.509818 O.3        1 MOL1        -0.5519
      74    H35     20.234866   23.921991   23.883698 H          1 MOL1         0.3769
      75    C22     20.691621   23.453781   21.229587 C.3        1 MOL1         0.1018
      76    H36     20.618966   24.498781   20.900378 H          1 MOL1         0.0783
      77    C23     21.324404   22.609570   20.090563 C.3        1 MOL1         0.1043
      78    H37     21.220624   21.546062   20.344898 H          1 MOL1         0.0783
      79    O19     22.725822   22.951077   19.949051 O.3        1 MOL1        -0.3740
      80    C24     20.650604   22.835134   18.718919 C.3        1 MOL1         0.0138
      81    H38     19.590144   22.562012   18.789594 H          1 MOL1         0.0794
      82    H39     21.114045   22.162387   17.985113 H          1 MOL1         0.0794
      83    O20     20.783716   24.195764   18.297102 O.3        1 MOL1        -0.5486
      84    H40     21.744104   24.400465   18.343596 H          1 MOL1         0.3769
      85    C25     25.192884   17.682617   21.743504 C.3        1 MOL1         0.2972
      86    H41     25.863735   16.816202   21.800733 H          1 MOL1         0.0751
      87    O21     23.817486   17.287835   21.567616 O.3        1 MOL1        -0.3740
      88    C26     25.305920   18.529323   23.034503 C.3        1 MOL1         0.1003
      89    H42     26.337621   18.899312   23.096395 H          1 MOL1         0.0783
      90    O22     25.014935   17.747398   24.200876 O.3        1 MOL1        -0.5519
      91    H43     24.923175   18.408070   24.924034 H          1 MOL1         0.3769
      92    C27     24.364710   19.752670   22.967730 C.3        1 MOL1         0.1053
      93    H44     23.330833   19.386172   22.998998 H          1 MOL1         0.0783
      94    O23     24.612696   20.612015   24.087022 O.3        1 MOL1        -0.5519
      95    H45     24.170163   21.472675   23.884265 H          1 MOL1         0.3769
      96    C28     24.553499   20.552332   21.655075 C.3        1 MOL1         0.1018
      97    H46     25.454618   21.172225   21.753559 H          1 MOL1         0.0783
      98    C29     24.660439   19.651263   20.391311 C.3        1 MOL1         0.1043
      99    H47     23.657242   19.272210   20.154877 H          1 MOL1         0.0783
     100    O24     25.555781   18.537680   20.639207 O.3        1 MOL1        -0.3740
     101    C30     25.181628   20.400358   19.144787 C.3        1 MOL1         0.0138
     102    H48     24.464460   21.184550   18.869499 H          1 MOL1         0.0794
     103    H49     25.231010   19.694632   18.304767 H          1 MOL1         0.0794
     104    O25     26.470215   20.972314   19.387936 O.3        1 MOL1        -0.5486
     105    H50     27.052875   20.228728   19.660386 H          1 MOL1         0.3769
     106    C31     21.330061   14.026624   20.957720 C.3        1 MOL1         0.2972
     107    H51     20.903161   13.050128   20.695158 H          1 MOL1         0.0751
     108    O26     20.299303   14.988285   21.259730 O.3        1 MOL1        -0.3740
     109    C32     22.290219   13.901990   22.171096 C.3        1 MOL1         0.1003
     110    H52     23.090907   13.208915   21.881766 H          1 MOL1         0.0783
     111    O27     21.622050   13.387609   23.329917 O.3        1 MOL1        -0.5519
     112    H53     22.289120   13.450363   24.050380 H          1 MOL1         0.3769
     113    C33     22.941650   15.264173   22.506775 C.3        1 MOL1         0.1053
     114    H54     22.154621   15.939471   22.870742 H          1 MOL1         0.0783
     115    O28     23.934662   15.081757   23.523565 O.3        1 MOL1        -0.5519
     116    H55     24.255316   15.985406   23.769474 H          1 MOL1         0.3769
     117    C34     23.583743   15.904289   21.250678 C.3        1 MOL1         0.1018
     118    H56     24.512436   15.373666   21.002292 H          1 MOL1         0.0783
     119    C35     22.638856   15.872887   20.020869 C.3        1 MOL1         0.1043
     120    H57     21.826300   16.589416   20.191807 H          1 MOL1         0.0783
     121    O29     22.096426   14.539834   19.848211 O.3        1 MOL1        -0.3740
     122    C36     23.347252   16.262777   18.704873 C.3        1 MOL1         0.0138
     123    H58     23.757209   17.276112   18.802870 H          1 MOL1         0.0794
     124    H59     22.602778   16.285310   17.897901 H          1 MOL1         0.0794
     125    O30     24.391954   15.337181   18.390615 O.3        1 MOL1        -0.5486
     126    H60     23.976454   14.446187   18.401926 H          1 MOL1         0.3769
     127    C1      18.961905   19.480857   25.468600 C.2        1 MOL1         0.6115
     128    O1      19.548236   19.032066   26.433475 O.co2      1 MOL1        -0.6776
     129    O2      18.217589   20.442693   25.515780 O.co2      1 MOL1        -0.6776
     130    C2      19.183215   18.817253   24.113263 C.3        1 MOL1        -0.2013
     131    H1      18.226077   18.812872   23.580589 H          1 MOL1         0.0727
     132    H2      19.460181   17.772636   24.293566 H          1 MOL1         0.0727
     133    C3      20.283634   19.516340   23.273643 C.3        1 MOL1        -0.1910
     134    H3      20.023006   20.572151   23.130905 H          1 MOL1         0.0729
     135    H4      21.216296   19.504802   23.852333 H          1 MOL1         0.0729
     136    C4      20.532506   18.850120   21.899589 C.3        1 MOL1        -0.1909
     137    H5      20.706918   17.775187   22.037363 H          1 MOL1         0.0729
     138    H6      21.454484   19.262961   21.471071 H          1 MOL1         0.0729
     139    C5      19.376583   19.073760   20.900101 C.3        1 MOL1        -0.1884
     140    H7      18.451936   18.632843   21.292505 H          1 MOL1         0.0729
     141    H8      19.192449   20.149686   20.784262 H          1 MOL1         0.0729
     142    C6      19.687543   18.461727   19.519711 C.3        1 MOL1        -0.2899
     143    H9      18.888018   18.692021   18.804137 H          1 MOL1         0.0741
     144    H10     20.627618   18.858634   19.115957 H          1 MOL1         0.0741
     145    H11     19.772149   17.370579   19.588481 H          1 MOL1         0.0741
@<TRIPOS>BOND
    1     1     2    1
    2     1     3    1
    3     1     4    1
    4     4     5    1
    5     4     6    1
    6     6     7    1
    7     4     8    1
    8     8     9    1
    9     8    10    1
   10    10    11    1
   11     8    12    1
   12    12    13    1
   13    12    14    1
   14    14    15    1
   15     1    16    1
   16    14    16    1
   17    14    17    1
   18    17    18    1
   19    17    19    1
   20    17    20    1
   21    20    21    1
   22    22    23    1
   23    22    24    1
   24    22    25    1
   25    25    26    1
   26    25    27    1
   27    27    28    1
   28    25    29    1
   29    29    30    1
   30    29    31    1
   31    31    32    1
   32     3    33    1
   33    29    33    1
   34    33    34    1
   35    33    35    1
   36    35    36    1
   37    22    37    1
   38    35    37    1
   39    35    38    1
   40    38    39    1
   41    38    40    1
   42    38    41    1
   43    41    42    1
   44    43    44    1
   45    43    45    1
   46    43    46    1
   47    46    47    1
   48    46    48    1
   49    48    49    1
   50    46    50    1
   51    50    51    1
   52    50    52    1
   53    52    53    1
   54    24    54    1
   55    50    54    1
   56    54    55    1
   57    54    56    1
   58    56    57    1
   59    43    58    1
   60    56    58    1
   61    56    59    1
   62    59    60    1
   63    59    61    1
   64    59    62    1
   65    62    63    1
   66    64    65    1
   67    64    66    1
   68    64    67    1
   69    67    68    1
   70    67    69    1
   71    69    70    1
   72    67    71    1
   73    71    72    1
   74    71    73    1
   75    73    74    1
   76    45    75    1
   77    71    75    1
   78    75    76    1
   79    75    77    1
   80    77    78    1
   81    64    79    1
   82    77    79    1
   83    77    80    1
   84    80    81    1
   85    80    82    1
   86    80    83    1
   87    83    84    1
   88    85    86    1
   89    85    87    1
   90    85    88    1
   91    88    89    1
   92    88    90    1
   93    90    91    1
   94    88    92    1
   95    92    93    1
   96    92    94    1
   97    94    95    1
   98    66    96    1
   99    92    96    1
  100    96    97    1
  101    96    98    1
  102    98    99    1
  103    85   100    1
  104    98   100    1
  105    98   101    1
  106   101   102    1
  107   101   103    1
  108   101   104    1
  109   104   105    1
  110   106   107    1
  111    12   108    1
  112   106   108    1
  113   106   109    1
  114   109   110    1
  115   109   111    1
  116   111   112    1
  117   109   113    1
  118   113   114    1
  119   113   115    1
  120   115   116    1
  121    87   117    1
  122   113   117    1
  123   117   118    1
  124   117   119    1
  125   119   120    1
  126   106   121    1
  127   119   121    1
  128   119   122    1
  129   122   123    1
  130   122   124    1
  131   122   125    1
  132   125   126    1
  133   127   128    1
  134   127   129    2
  135   127   130    1
  136   130   131    1
  137   130   132    1
  138   130   133    1
  139   133   134    1
  140   133   135    1
  141   133   136    1
  142   136   137    1
  143   136   138    1
  144   136   139    1
  145   139   140    1
  146   139   141    1
  147   139   142    1
  148   142   143    1
  149   142   144    1
  150   142   145    1
@<TRIPOS>SUBSTRUCTURE
       1 MOL1            1 RESIDUE      1      MOL     
       2 MOL1          145 RESIDUE      1      MOL     
@<SCITEGIC>MOL_PROPERTY
VM2 Rank
SciTegic.value.IntegerValue
8

@<SCITEGIC>MOL_PROPERTY
Conf_Id
SciTegic.value.IntegerValue
28633

@<SCITEGIC>MOL_PROPERTY
Probability
SciTegic.value.DoubleValue
1.52

@<SCITEGIC>MOL_PROPERTY
Sum Probability
SciTegic.value.DoubleValue
17.87

@<SCITEGIC>MOL_PROPERTY
Delta G
SciTegic.value.DoubleValue
0.623

@<SCITEGIC>MOL_PROPERTY
G
SciTegic.value.DoubleValue
489.413

@<SCITEGIC>MOL_PROPERTY
E
SciTegic.value.DoubleValue
302.290

@<SCITEGIC>MOL_PROPERTY
-TS
SciTegic.value.DoubleValue
187.123

@<SCITEGIC>MOL_PROPERTY
U+W
SciTegic.value.DoubleValue
174.413

@<SCITEGIC>MOL_PROPERTY
U
SciTegic.value.DoubleValue
251.681

@<SCITEGIC>MOL_PROPERTY
W
SciTegic.value.DoubleValue
-77.268

@<SCITEGIC>MOL_PROPERTY
W(PB)
SciTegic.value.DoubleValue
-83.423

@<SCITEGIC>MOL_PROPERTY
W(SA)
SciTegic.value.DoubleValue
6.155

@<SCITEGIC>MOL_PROPERTY
Valence
SciTegic.value.DoubleValue
149.121

@<SCITEGIC>MOL_PROPERTY
Coulomb
SciTegic.value.DoubleValue
126.935

@<SCITEGIC>MOL_PROPERTY
VdW
SciTegic.value.DoubleValue
-24.374

@<SCITEGIC>MOL_PROPERTY
VdW6
SciTegic.value.DoubleValue
-178.440

@<SCITEGIC>MOL_PROPERTY
VdW12
SciTegic.value.DoubleValue
154.066

@<SCITEGIC>MOL_PROPERTY
Bond
SciTegic.value.DoubleValue
4.556

@<SCITEGIC>MOL_PROPERTY
Angle
SciTegic.value.DoubleValue
11.815

@<SCITEGIC>MOL_PROPERTY
Pdih
SciTegic.value.DoubleValue
132.749

@<SCITEGIC>MOL_PROPERTY
Idih
SciTegic.value.DoubleValue
0.001

@<SCITEGIC>MOL_PROPERTY
Tether
SciTegic.value.DoubleValue
0.000

