@<TRIPOS>MOLECULE
CD_guest-5_vm2_rndm.mol2 : vm2 host+ligand conformer 1
         148         154           2
SMALL
USER_CHARGES
 
@<TRIPOS>ATOM
       1    C1      16.215932   15.104570   21.119980 C.3        1 MOL1         0.2972
       2    H1      15.137034   14.975558   20.964336 H          1 MOL1         0.0751
       3    O1      16.547489   16.465971   21.459682 O.3        1 MOL1        -0.3740
       4    C2      16.718698   14.181197   22.258957 C.3        1 MOL1         0.1003
       5    H2      16.497716   13.145669   21.969334 H          1 MOL1         0.0783
       6    O2      16.064362   14.480857   23.499993 O.3        1 MOL1        -0.5519
       7    H3      16.545258   13.945125   24.170299 H          1 MOL1         0.3769
       8    C3      18.248212   14.316230   22.436024 C.3        1 MOL1         0.1053
       9    H4      18.446317   15.326252   22.812834 H          1 MOL1         0.0783
      10    O3      18.719658   13.340999   23.374258 O.3        1 MOL1        -0.5519
      11    H5      19.707783   13.391670   23.363524 H          1 MOL1         0.3769
      12    C4      19.002524   14.151874   21.094991 C.3        1 MOL1         0.1018
      13    H6      19.007359   13.087877   20.824199 H          1 MOL1         0.0783
      14    C5      18.364731   14.982071   19.947301 C.3        1 MOL1         0.1043
      15    H7      18.570124   16.045665   20.127951 H          1 MOL1         0.0783
      16    O4      16.934207   14.755794   19.917764 O.3        1 MOL1        -0.3740
      17    C6      18.916871   14.624222   18.550152 C.3        1 MOL1         0.0138
      18    H8      19.986310   14.862712   18.515964 H          1 MOL1         0.0794
      19    H9      18.418584   15.254833   17.801851 H          1 MOL1         0.0794
      20    O5      18.708886   13.240759   18.250715 O.3        1 MOL1        -0.5486
      21    H10     17.743150   13.083152   18.344636 H          1 MOL1         0.3769
      22    C7      14.895674   20.243608   21.638931 C.3        1 MOL1         0.2972
      23    H11     14.242092   21.121770   21.713569 H          1 MOL1         0.0751
      24    O6      16.243218   20.611416   21.277105 O.3        1 MOL1        -0.3740
      25    C8      14.926705   19.487867   22.989957 C.3        1 MOL1         0.1003
      26    H12     13.901443   19.159136   23.204283 H          1 MOL1         0.0783
      27    O7      15.376734   20.340895   24.051884 O.3        1 MOL1        -0.5519
      28    H13     15.543004   19.731426   24.805462 H          1 MOL1         0.3769
      29    C9      15.817142   18.226922   22.894568 C.3        1 MOL1         0.1053
      30    H14     16.858032   18.549007   22.771032 H          1 MOL1         0.0783
      31    O8      15.686683   17.453049   24.093010 O.3        1 MOL1        -0.5519
      32    H15     16.007688   16.543587   23.878377 H          1 MOL1         0.3769
      33    C10     15.433830   17.352233   21.675429 C.3        1 MOL1         0.1018
      34    H16     14.515230   16.802880   21.921893 H          1 MOL1         0.0783
      35    C11     15.227712   18.177285   20.372637 C.3        1 MOL1         0.1043
      36    H17     16.211976   18.507449   20.016193 H          1 MOL1         0.0783
      37    O9      14.393991   19.331154   20.640983 O.3        1 MOL1        -0.3740
      38    C12     14.558950   17.379482   19.230639 C.3        1 MOL1         0.0138
      39    H18     15.229883   16.570547   18.914216 H          1 MOL1         0.0794
      40    H19     14.424886   18.045613   18.367718 H          1 MOL1         0.0794
      41    O10     13.298516   16.842977   19.643485 O.3        1 MOL1        -0.5486
      42    H20     12.752494   17.610155   19.926033 H          1 MOL1         0.3769
      43    C13     18.500221   24.052995   20.652420 C.3        1 MOL1         0.2972
      44    H21     18.884246   25.028467   20.327812 H          1 MOL1         0.0751
      45    O11     19.508780   23.278616   21.325924 O.3        1 MOL1        -0.3740
      46    C14     17.309093   24.232013   21.629299 C.3        1 MOL1         0.1003
      47    H22     16.527154   24.791176   21.099356 H          1 MOL1         0.0783
      48    O12     17.709502   24.961440   22.799059 O.3        1 MOL1        -0.5519
      49    H23     16.939294   24.899984   23.407238 H          1 MOL1         0.3769
      50    C15     16.721038   22.861946   22.047840 C.3        1 MOL1         0.1053
      51    H24     17.472513   22.352684   22.659191 H          1 MOL1         0.0783
      52    O13     15.540103   23.063219   22.833743 O.3        1 MOL1        -0.5519
      53    H25     15.401262   22.219793   23.331779 H          1 MOL1         0.3769
      54    C16     16.422692   21.964597   20.814622 C.3        1 MOL1         0.1018
      55    H26     15.527774   22.332539   20.295354 H          1 MOL1         0.0783
      56    C17     17.607390   21.937009   19.811728 C.3        1 MOL1         0.1043
      57    H27     18.434886   21.370739   20.260774 H          1 MOL1         0.0783
      58    O14     18.032342   23.291234   19.520163 O.3        1 MOL1        -0.3740
      59    C18     17.249088   21.263355   18.468621 C.3        1 MOL1         0.0138
      60    H28     16.940063   20.227393   18.656942 H          1 MOL1         0.0794
      61    H29     18.150085   21.228839   17.841797 H          1 MOL1         0.0794
      62    O15     16.205385   21.975108   17.797159 O.3        1 MOL1        -0.5486
      63    H30     16.506805   22.909385   17.743272 H          1 MOL1         0.3769
      64    C19     23.580920   22.874445   21.841942 C.3        1 MOL1         0.2972
      65    H31     24.662519   23.033474   21.933480 H          1 MOL1         0.0751
      66    O16     23.238160   21.471063   21.920357 O.3        1 MOL1        -0.3740
      67    C20     22.845938   23.635752   22.973252 C.3        1 MOL1         0.1003
      68    H32     23.102356   24.698776   22.877270 H          1 MOL1         0.0783
      69    O17     23.250570   23.163166   24.265554 O.3        1 MOL1        -0.5519
      70    H33     22.623528   23.587918   24.892784 H          1 MOL1         0.3769
      71    C21     21.315902   23.498214   22.825476 C.3        1 MOL1         0.1053
      72    H34     21.060928   22.451644   23.016692 H          1 MOL1         0.0783
      73    O18     20.649947   24.344284   23.771116 O.3        1 MOL1        -0.5519
      74    H35     19.699296   24.365130   23.503167 H          1 MOL1         0.3769
      75    C22     20.829612   23.842492   21.399942 C.3        1 MOL1         0.1018
      76    H36     20.818763   24.934724   21.287722 H          1 MOL1         0.0783
      77    C23     21.705704   23.193768   20.290235 C.3        1 MOL1         0.1043
      78    H37     21.491521   22.118457   20.257088 H          1 MOL1         0.0783
      79    O19     23.109174   23.400512   20.583603 O.3        1 MOL1        -0.3740
      80    C24     21.443649   23.768826   18.880527 C.3        1 MOL1         0.0138
      81    H38     20.415704   23.533414   18.578334 H          1 MOL1         0.0794
      82    H39     22.113243   23.269627   18.167511 H          1 MOL1         0.0794
      83    O20     21.656724   25.183370   18.852278 O.3        1 MOL1        -0.5486
      84    H40     22.578095   25.326784   19.163815 H          1 MOL1         0.3769
      85    C25     25.036718   17.695796   21.790117 C.3        1 MOL1         0.2972
      86    H41     25.765451   16.876476   21.751467 H          1 MOL1         0.0751
      87    O21     23.685200   17.211657   21.681818 O.3        1 MOL1        -0.3740
      88    C26     25.188192   18.472075   23.123434 C.3        1 MOL1         0.1003
      89    H42     26.214505   18.859818   23.161144 H          1 MOL1         0.0783
      90    O22     24.967001   17.618461   24.254323 O.3        1 MOL1        -0.5519
      91    H43     24.905714   18.234924   25.018472 H          1 MOL1         0.3769
      92    C27     24.224255   19.678339   23.180070 C.3        1 MOL1         0.1053
      93    H44     23.200166   19.289246   23.223227 H          1 MOL1         0.0783
      94    O23     24.507566   20.459789   24.347348 O.3        1 MOL1        -0.5519
      95    H45     23.973722   21.289919   24.279246 H          1 MOL1         0.3769
      96    C28     24.357795   20.558762   21.914880 C.3        1 MOL1         0.1018
      97    H46     25.319807   21.085788   21.962675 H          1 MOL1         0.0783
      98    C29     24.306303   19.717774   20.610078 C.3        1 MOL1         0.1043
      99    H47     23.287435   19.326638   20.484086 H          1 MOL1         0.0783
     100    O24     25.254009   18.621634   20.703715 O.3        1 MOL1        -0.3740
     101    C30     24.665440   20.528819   19.345506 C.3        1 MOL1         0.0138
     102    H48     23.933907   21.336147   19.214515 H          1 MOL1         0.0794
     103    H49     24.585046   19.870396   18.470311 H          1 MOL1         0.0794
     104    O25     25.987196   21.068680   19.439595 O.3        1 MOL1        -0.5486
     105    H50     26.581046   20.305348   19.615586 H          1 MOL1         0.3769
     106    C31     21.424972   13.803736   20.953225 C.3        1 MOL1         0.2972
     107    H51     21.078938   12.804275   20.661486 H          1 MOL1         0.0751
     108    O26     20.329166   14.661124   21.329261 O.3        1 MOL1        -0.3740
     109    C32     22.393994   13.701749   22.158775 C.3        1 MOL1         0.1003
     110    H52     23.232610   13.063267   21.852079 H          1 MOL1         0.0783
     111    O27     21.744568   13.116924   23.297066 O.3        1 MOL1        -0.5519
     112    H53     22.384422   13.232841   24.034805 H          1 MOL1         0.3769
     113    C33     22.964976   15.089060   22.537806 C.3        1 MOL1         0.1053
     114    H54     22.146765   15.690161   22.952318 H          1 MOL1         0.0783
     115    O28     23.994815   14.930615   23.520726 O.3        1 MOL1        -0.5519
     116    H55     24.274985   15.842230   23.786194 H          1 MOL1         0.3769
     117    C34     23.526621   15.832930   21.300004 C.3        1 MOL1         0.1018
     118    H56     24.478337   15.373568   21.001442 H          1 MOL1         0.0783
     119    C35     22.556006   15.796281   20.091358 C.3        1 MOL1         0.1043
     120    H57     21.688913   16.435398   20.304509 H          1 MOL1         0.0783
     121    O29     22.139471   14.427239   19.864748 O.3        1 MOL1        -0.3740
     122    C36     23.227084   16.299781   18.796227 C.3        1 MOL1         0.0138
     123    H58     24.091400   15.663370   18.563966 H          1 MOL1         0.0794
     124    H59     23.597682   17.320708   18.954336 H          1 MOL1         0.0794
     125    O30     22.289990   16.283921   17.717618 O.3        1 MOL1        -0.5486
     126    H60     21.945731   15.364728   17.672861 H          1 MOL1         0.3769
     127    C1      20.879050   17.821296   25.150336 C.3        1 MOL1        -0.1685
     128    H1      20.813396   17.110099   25.984629 H          1 MOL1         0.0832
     129    H2      21.929928   17.811601   24.830307 H          1 MOL1         0.0832
     130    C2      20.508714   19.220375   25.685533 C.3        1 MOL1        -0.1685
     131    H3      19.514535   19.181263   26.150895 H          1 MOL1         0.0832
     132    H4      21.210493   19.478944   26.489888 H          1 MOL1         0.0832
     133    C3      20.536625   20.345718   24.629160 C.3        1 MOL1        -0.1685
     134    H5      21.517248   20.395729   24.144508 H          1 MOL1         0.0832
     135    H6      20.414136   21.300442   25.158570 H          1 MOL1         0.0832
     136    C4      19.404158   20.232163   23.580238 C.3        1 MOL1        -0.1761
     137    H7      18.483647   19.887558   24.068302 H          1 MOL1         0.0832
     138    H8      19.176098   21.236604   23.212993 H          1 MOL1         0.0832
     139    C5      19.697179   19.343109   22.350451 C.3        1 MOL1         0.1218
     140    H9      18.739583   19.181297   21.837102 H          1 MOL1         0.0789
     141    C6      20.314607   17.955694   22.636447 C.3        1 MOL1        -0.1761
     142    H10     19.973804   17.281819   21.841832 H          1 MOL1         0.0832
     143    H11     21.402674   18.007465   22.531081 H          1 MOL1         0.0832
     144    C7      19.976239   17.313632   24.003510 C.3        1 MOL1        -0.1685
     145    H12     18.913442   17.443069   24.249221 H          1 MOL1         0.0832
     146    H13     20.140217   16.232016   23.920367 H          1 MOL1         0.0832
     147    O1      20.561275   20.045204   21.466072 O.3        1 MOL1        -0.5509
     148    H14     21.332159   20.333327   21.995250 H          1 MOL1         0.3779
@<TRIPOS>BOND
    1     1     2    1
    2     1     3    1
    3     1     4    1
    4     4     5    1
    5     4     6    1
    6     6     7    1
    7     4     8    1
    8     8     9    1
    9     8    10    1
   10    10    11    1
   11     8    12    1
   12    12    13    1
   13    12    14    1
   14    14    15    1
   15     1    16    1
   16    14    16    1
   17    14    17    1
   18    17    18    1
   19    17    19    1
   20    17    20    1
   21    20    21    1
   22    22    23    1
   23    22    24    1
   24    22    25    1
   25    25    26    1
   26    25    27    1
   27    27    28    1
   28    25    29    1
   29    29    30    1
   30    29    31    1
   31    31    32    1
   32     3    33    1
   33    29    33    1
   34    33    34    1
   35    33    35    1
   36    35    36    1
   37    22    37    1
   38    35    37    1
   39    35    38    1
   40    38    39    1
   41    38    40    1
   42    38    41    1
   43    41    42    1
   44    43    44    1
   45    43    45    1
   46    43    46    1
   47    46    47    1
   48    46    48    1
   49    48    49    1
   50    46    50    1
   51    50    51    1
   52    50    52    1
   53    52    53    1
   54    24    54    1
   55    50    54    1
   56    54    55    1
   57    54    56    1
   58    56    57    1
   59    43    58    1
   60    56    58    1
   61    56    59    1
   62    59    60    1
   63    59    61    1
   64    59    62    1
   65    62    63    1
   66    64    65    1
   67    64    66    1
   68    64    67    1
   69    67    68    1
   70    67    69    1
   71    69    70    1
   72    67    71    1
   73    71    72    1
   74    71    73    1
   75    73    74    1
   76    45    75    1
   77    71    75    1
   78    75    76    1
   79    75    77    1
   80    77    78    1
   81    64    79    1
   82    77    79    1
   83    77    80    1
   84    80    81    1
   85    80    82    1
   86    80    83    1
   87    83    84    1
   88    85    86    1
   89    85    87    1
   90    85    88    1
   91    88    89    1
   92    88    90    1
   93    90    91    1
   94    88    92    1
   95    92    93    1
   96    92    94    1
   97    94    95    1
   98    66    96    1
   99    92    96    1
  100    96    97    1
  101    96    98    1
  102    98    99    1
  103    85   100    1
  104    98   100    1
  105    98   101    1
  106   101   102    1
  107   101   103    1
  108   101   104    1
  109   104   105    1
  110   106   107    1
  111    12   108    1
  112   106   108    1
  113   106   109    1
  114   109   110    1
  115   109   111    1
  116   111   112    1
  117   109   113    1
  118   113   114    1
  119   113   115    1
  120   115   116    1
  121    87   117    1
  122   113   117    1
  123   117   118    1
  124   117   119    1
  125   119   120    1
  126   106   121    1
  127   119   121    1
  128   119   122    1
  129   122   123    1
  130   122   124    1
  131   122   125    1
  132   125   126    1
  133   127   128    1
  134   127   129    1
  135   127   130    1
  136   130   131    1
  137   130   132    1
  138   130   133    1
  139   133   134    1
  140   133   135    1
  141   133   136    1
  142   136   137    1
  143   136   138    1
  144   136   139    1
  145   139   140    1
  146   139   141    1
  147   141   142    1
  148   141   143    1
  149   127   144    1
  150   141   144    1
  151   144   145    1
  152   144   146    1
  153   139   147    1
  154   147   148    1
@<TRIPOS>SUBSTRUCTURE
       1 MOL1            1 RESIDUE      1      MOL     
       2 MOL1          148 RESIDUE      1      MOL     
@<SCITEGIC>MOL_PROPERTY
VM2 Rank
SciTegic.value.IntegerValue
1

@<SCITEGIC>MOL_PROPERTY
Conf_Id
SciTegic.value.IntegerValue
19858

@<SCITEGIC>MOL_PROPERTY
Probability
SciTegic.value.DoubleValue
2.42

@<SCITEGIC>MOL_PROPERTY
Sum Probability
SciTegic.value.DoubleValue
2.42

@<SCITEGIC>MOL_PROPERTY
Delta G
SciTegic.value.DoubleValue
0.000

@<SCITEGIC>MOL_PROPERTY
G
SciTegic.value.DoubleValue
563.011

@<SCITEGIC>MOL_PROPERTY
E
SciTegic.value.DoubleValue
367.740

@<SCITEGIC>MOL_PROPERTY
-TS
SciTegic.value.DoubleValue
195.271

@<SCITEGIC>MOL_PROPERTY
U+W
SciTegic.value.DoubleValue
237.180

@<SCITEGIC>MOL_PROPERTY
U
SciTegic.value.DoubleValue
267.139

@<SCITEGIC>MOL_PROPERTY
W
SciTegic.value.DoubleValue
-29.959

@<SCITEGIC>MOL_PROPERTY
W(PB)
SciTegic.value.DoubleValue
-36.145

@<SCITEGIC>MOL_PROPERTY
W(SA)
SciTegic.value.DoubleValue
6.186

@<SCITEGIC>MOL_PROPERTY
Valence
SciTegic.value.DoubleValue
155.099

@<SCITEGIC>MOL_PROPERTY
Coulomb
SciTegic.value.DoubleValue
139.218

@<SCITEGIC>MOL_PROPERTY
VdW
SciTegic.value.DoubleValue
-27.177

@<SCITEGIC>MOL_PROPERTY
VdW6
SciTegic.value.DoubleValue
-177.583

@<SCITEGIC>MOL_PROPERTY
VdW12
SciTegic.value.DoubleValue
150.405

@<SCITEGIC>MOL_PROPERTY
Bond
SciTegic.value.DoubleValue
4.134

@<SCITEGIC>MOL_PROPERTY
Angle
SciTegic.value.DoubleValue
11.659

@<SCITEGIC>MOL_PROPERTY
Pdih
SciTegic.value.DoubleValue
139.305

@<SCITEGIC>MOL_PROPERTY
Idih
SciTegic.value.DoubleValue
0.000

@<SCITEGIC>MOL_PROPERTY
Tether
SciTegic.value.DoubleValue
0.000

