@<TRIPOS>MOLECULE
CD_guest-s10_vm2_rndm.mol2 : vm2 host+ligand conformer 1
         146         151           2
SMALL
USER_CHARGES
 
@<TRIPOS>ATOM
       1    C1      16.370251   15.260138   20.826067 C.3        1 MOL1         0.2972
       2    H1      15.322183   15.122317   20.530147 H          1 MOL1         0.0751
       3    O1      16.632357   16.619419   21.230410 O.3        1 MOL1        -0.3740
       4    C2      16.742635   14.306339   21.991783 C.3        1 MOL1         0.1003
       5    H2      16.567342   13.280373   21.642679 H          1 MOL1         0.0783
       6    O2      15.938987   14.553123   23.153195 O.3        1 MOL1        -0.5519
       7    H3      16.317609   13.968136   23.847626 H          1 MOL1         0.3769
       8    C3      18.239586   14.435167   22.360121 C.3        1 MOL1         0.1053
       9    H4      18.394479   15.428535   22.801747 H          1 MOL1         0.0783
      10    O3      18.584529   13.423233   23.313336 O.3        1 MOL1        -0.5519
      11    H5      19.496681   13.635084   23.633734 H          1 MOL1         0.3769
      12    C4      19.143555   14.316648   21.105772 C.3        1 MOL1         0.1018
      13    H6      19.174026   13.271341   20.769958 H          1 MOL1         0.0783
      14    C5      18.648068   15.199087   19.931169 C.3        1 MOL1         0.1043
      15    H7      18.822811   16.254964   20.174571 H          1 MOL1         0.0783
      16    O4      17.237560   14.954026   19.714401 O.3        1 MOL1        -0.3740
      17    C6      19.381590   14.873784   18.613685 C.3        1 MOL1         0.0138
      18    H8      19.145729   13.844586   18.311520 H          1 MOL1         0.0794
      19    H9      20.465437   14.933088   18.775063 H          1 MOL1         0.0794
      20    O5      18.990067   15.797947   17.597300 O.3        1 MOL1        -0.5486
      21    H10     18.007711   15.777437   17.573906 H          1 MOL1         0.3769
      22    C7      14.787117   20.291639   21.638553 C.3        1 MOL1         0.2972
      23    H11     14.095917   21.133491   21.772376 H          1 MOL1         0.0751
      24    O6      16.109336   20.738160   21.276670 O.3        1 MOL1        -0.3740
      25    C8      14.869330   19.459845   22.942120 C.3        1 MOL1         0.1003
      26    H12     13.862030   19.073940   23.146352 H          1 MOL1         0.0783
      27    O7      15.299533   20.257867   24.052960 O.3        1 MOL1        -0.5519
      28    H13     15.468937   19.606926   24.770361 H          1 MOL1         0.3769
      29    C9      15.812966   18.249783   22.769188 C.3        1 MOL1         0.1053
      30    H14     16.837497   18.628124   22.662663 H          1 MOL1         0.0783
      31    O8      15.715015   17.410090   23.925644 O.3        1 MOL1        -0.5519
      32    H15     15.955639   16.496441   23.636151 H          1 MOL1         0.3769
      33    C10     15.471412   17.428867   21.502410 C.3        1 MOL1         0.1018
      34    H16     14.585835   16.815214   21.716735 H          1 MOL1         0.0783
      35    C11     15.212607   18.319238   20.252303 C.3        1 MOL1         0.1043
      36    H17     16.176083   18.720242   19.910288 H          1 MOL1         0.0783
      37    O9      14.321901   19.412730   20.592428 O.3        1 MOL1        -0.3740
      38    C12     14.582146   17.553997   19.067345 C.3        1 MOL1         0.0138
      39    H18     15.294522   16.800679   18.706355 H          1 MOL1         0.0794
      40    H19     14.409961   18.259293   18.243276 H          1 MOL1         0.0794
      41    O10     13.353928   16.928406   19.449978 O.3        1 MOL1        -0.5486
      42    H20     12.768999   17.647098   19.778420 H          1 MOL1         0.3769
      43    C13     18.405453   24.111869   20.700041 C.3        1 MOL1         0.2972
      44    H21     18.836477   25.087383   20.440598 H          1 MOL1         0.0751
      45    O11     19.426698   23.158265   21.059888 O.3        1 MOL1        -0.3740
      46    C14     17.375241   24.238685   21.853129 C.3        1 MOL1         0.1003
      47    H22     16.553989   24.868701   21.487007 H          1 MOL1         0.0783
      48    O12     17.940665   24.846110   23.020806 O.3        1 MOL1        -0.5519
      49    H23     17.226195   24.802150   23.696279 H          1 MOL1         0.3769
      50    C15     16.787128   22.852931   22.208210 C.3        1 MOL1         0.1053
      51    H24     17.593287   22.237205   22.630447 H          1 MOL1         0.0783
      52    O13     15.744350   23.011992   23.176758 O.3        1 MOL1        -0.5519
      53    H25     15.562251   22.109060   23.538799 H          1 MOL1         0.3769
      54    C16     16.241314   22.133000   20.946246 C.3        1 MOL1         0.1018
      55    H26     15.279944   22.577513   20.655505 H          1 MOL1         0.0783
      56    C17     17.206726   22.209656   19.732687 C.3        1 MOL1         0.1043
      57    H27     18.046924   21.524144   19.901519 H          1 MOL1         0.0783
      58    O14     17.689325   23.568008   19.571078 O.3        1 MOL1        -0.3740
      59    C18     16.508438   21.800332   18.419533 C.3        1 MOL1         0.0138
      60    H28     15.715908   22.524826   18.188904 H          1 MOL1         0.0794
      61    H29     16.035037   20.818290   18.551271 H          1 MOL1         0.0794
      62    O15     17.461434   21.743154   17.356879 O.3        1 MOL1        -0.5486
      63    H30     17.938556   22.602867   17.371742 H          1 MOL1         0.3769
      64    C19     23.356123   22.638242   22.133720 C.3        1 MOL1         0.2972
      65    H31     24.397225   22.731631   22.467204 H          1 MOL1         0.0751
      66    O16     23.110341   21.359537   21.510956 O.3        1 MOL1        -0.3740
      67    C20     22.392072   22.795901   23.336597 C.3        1 MOL1         0.1003
      68    H32     22.574412   23.786217   23.773277 H          1 MOL1         0.0783
      69    O17     22.649520   21.786285   24.328243 O.3        1 MOL1        -0.5519
      70    H33     23.588638   21.504202   24.214697 H          1 MOL1         0.3769
      71    C21     20.915729   22.738578   22.870064 C.3        1 MOL1         0.1053
      72    H34     20.707658   21.716905   22.535664 H          1 MOL1         0.0783
      73    O18     20.047849   23.071476   23.959534 O.3        1 MOL1        -0.5519
      74    H35     19.281985   23.561235   23.575915 H          1 MOL1         0.3769
      75    C22     20.630021   23.669510   21.665111 C.3        1 MOL1         0.1018
      76    H36     20.509046   24.699858   22.025976 H          1 MOL1         0.0783
      77    C23     21.736016   23.604592   20.574391 C.3        1 MOL1         0.1043
      78    H37     21.633706   22.651588   20.038721 H          1 MOL1         0.0783
      79    O19     23.048519   23.677517   21.181317 O.3        1 MOL1        -0.3740
      80    C24     21.634302   24.737331   19.528795 C.3        1 MOL1         0.0138
      81    H38     20.694499   24.626998   18.971815 H          1 MOL1         0.0794
      82    H39     22.455299   24.627017   18.807715 H          1 MOL1         0.0794
      83    O20     21.690278   26.023895   20.151442 O.3        1 MOL1        -0.5486
      84    H40     22.535287   26.050839   20.653354 H          1 MOL1         0.3769
      85    C25     25.046977   17.693861   21.114013 C.3        1 MOL1         0.2972
      86    H41     25.747316   16.882937   20.875713 H          1 MOL1         0.0751
      87    O21     23.756749   17.186934   21.505648 O.3        1 MOL1        -0.3740
      88    C26     25.590248   18.575052   22.269101 C.3        1 MOL1         0.1003
      89    H42     26.549742   18.995303   21.939720 H          1 MOL1         0.0783
      90    O22     25.790373   17.804736   23.467647 O.3        1 MOL1        -0.5519
      91    H43     26.563132   17.219593   23.317198 H          1 MOL1         0.3769
      92    C27     24.627296   19.752775   22.558724 C.3        1 MOL1         0.1053
      93    H44     23.702657   19.331124   22.972191 H          1 MOL1         0.0783
      94    O23     25.238373   20.612270   23.527259 O.3        1 MOL1        -0.5519
      95    H45     25.624338   19.999442   24.193942 H          1 MOL1         0.3769
      96    C28     24.266779   20.533937   21.261620 C.3        1 MOL1         0.1018
      97    H46     25.125527   21.140217   20.943823 H          1 MOL1         0.0783
      98    C29     23.870202   19.585643   20.099845 C.3        1 MOL1         0.1043
      99    H47     22.885624   19.149652   20.315075 H          1 MOL1         0.0783
     100    O24     24.867766   18.544642   19.963461 O.3        1 MOL1        -0.3740
     101    C30     23.787728   20.328279   18.750154 C.3        1 MOL1         0.0138
     102    H48     24.779431   20.723346   18.492080 H          1 MOL1         0.0794
     103    H49     23.103053   21.181077   18.846043 H          1 MOL1         0.0794
     104    O25     23.320567   19.440817   17.732696 O.3        1 MOL1        -0.5486
     105    H50     23.906982   18.653143   17.769418 H          1 MOL1         0.3769
     106    C31     21.457153   13.798315   21.715793 C.3        1 MOL1         0.2972
     107    H51     21.025751   12.791185   21.778472 H          1 MOL1         0.0751
     108    O26     20.447403   14.801496   21.474949 O.3        1 MOL1        -0.3740
     109    C32     22.202662   14.138748   23.029058 C.3        1 MOL1         0.1003
     110    H52     23.026986   13.421975   23.138480 H          1 MOL1         0.0783
     111    O27     21.332626   14.037987   24.164437 O.3        1 MOL1        -0.5519
     112    H53     21.845673   14.432857   24.905048 H          1 MOL1         0.3769
     113    C33     22.807171   15.556876   22.953251 C.3        1 MOL1         0.1053
     114    H54     21.973547   16.265871   22.926716 H          1 MOL1         0.0783
     115    O28     23.618756   15.804121   24.107737 O.3        1 MOL1        -0.5519
     116    H55     24.138416   16.623622   23.922483 H          1 MOL1         0.3769
     117    C34     23.649531   15.760608   21.670325 C.3        1 MOL1         0.1018
     118    H56     24.628954   15.287280   21.820493 H          1 MOL1         0.0783
     119    C35     22.970734   15.193930   20.389135 C.3        1 MOL1         0.1043
     120    H57     22.162545   15.878184   20.099073 H          1 MOL1         0.0783
     121    O29     22.421230   13.875604   20.644582 O.3        1 MOL1        -0.3740
     122    C36     23.932255   15.076232   19.185728 C.3        1 MOL1         0.0138
     123    H58     24.266376   16.080045   18.893116 H          1 MOL1         0.0794
     124    H59     23.381916   14.655400   18.333539 H          1 MOL1         0.0794
     125    O30     25.059400   14.254739   19.503577 O.3        1 MOL1        -0.5486
     126    H60     24.697023   13.381106   19.771973 H          1 MOL1         0.3769
     127    N1      20.248099   20.397246   25.244085 N.4        1 MOL1        -0.5937
     128    H1      19.521862   20.811809   25.832829 H          1 MOL1         0.3684
     129    H2      20.753789   21.189414   24.804668 H          1 MOL1         0.3684
     130    H3      20.919358   19.922381   25.851044 H          1 MOL1         0.3684
     131    C1      19.666894   19.471623   24.210799 C.3        1 MOL1         0.1270
     132    H4      18.971276   20.073788   23.618803 H          1 MOL1         0.0960
     133    C2      18.884046   18.337906   24.895977 C.3        1 MOL1        -0.2382
     134    H5      19.537732   17.738681   25.541637 H          1 MOL1         0.1009
     135    H6      18.428536   17.663572   24.163768 H          1 MOL1         0.1009
     136    H7      18.074002   18.744895   25.513439 H          1 MOL1         0.1009
     137    C3      20.757905   18.911687   23.268704 C.3        1 MOL1        -0.1392
     138    H8      21.448747   19.715018   22.993302 H          1 MOL1         0.0998
     139    H9      21.362187   18.179842   23.818197 H          1 MOL1         0.0998
     140    C4      20.214952   18.278556   21.962207 C.3        1 MOL1        -0.1302
     141    H10     19.539133   17.445563   22.191627 H          1 MOL1         0.0998
     142    H11     21.052643   17.841842   21.402158 H          1 MOL1         0.0998
     143    C5      19.495948   19.300067   21.053007 C.3        1 MOL1        -0.2317
     144    H12     18.622202   19.738176   21.549084 H          1 MOL1         0.1009
     145    H13     20.171311   20.116924   20.765912 H          1 MOL1         0.1009
     146    H14     19.145892   18.817159   20.131307 H          1 MOL1         0.1009
@<TRIPOS>BOND
    1     1     2    1
    2     1     3    1
    3     1     4    1
    4     4     5    1
    5     4     6    1
    6     6     7    1
    7     4     8    1
    8     8     9    1
    9     8    10    1
   10    10    11    1
   11     8    12    1
   12    12    13    1
   13    12    14    1
   14    14    15    1
   15     1    16    1
   16    14    16    1
   17    14    17    1
   18    17    18    1
   19    17    19    1
   20    17    20    1
   21    20    21    1
   22    22    23    1
   23    22    24    1
   24    22    25    1
   25    25    26    1
   26    25    27    1
   27    27    28    1
   28    25    29    1
   29    29    30    1
   30    29    31    1
   31    31    32    1
   32     3    33    1
   33    29    33    1
   34    33    34    1
   35    33    35    1
   36    35    36    1
   37    22    37    1
   38    35    37    1
   39    35    38    1
   40    38    39    1
   41    38    40    1
   42    38    41    1
   43    41    42    1
   44    43    44    1
   45    43    45    1
   46    43    46    1
   47    46    47    1
   48    46    48    1
   49    48    49    1
   50    46    50    1
   51    50    51    1
   52    50    52    1
   53    52    53    1
   54    24    54    1
   55    50    54    1
   56    54    55    1
   57    54    56    1
   58    56    57    1
   59    43    58    1
   60    56    58    1
   61    56    59    1
   62    59    60    1
   63    59    61    1
   64    59    62    1
   65    62    63    1
   66    64    65    1
   67    64    66    1
   68    64    67    1
   69    67    68    1
   70    67    69    1
   71    69    70    1
   72    67    71    1
   73    71    72    1
   74    71    73    1
   75    73    74    1
   76    45    75    1
   77    71    75    1
   78    75    76    1
   79    75    77    1
   80    77    78    1
   81    64    79    1
   82    77    79    1
   83    77    80    1
   84    80    81    1
   85    80    82    1
   86    80    83    1
   87    83    84    1
   88    85    86    1
   89    85    87    1
   90    85    88    1
   91    88    89    1
   92    88    90    1
   93    90    91    1
   94    88    92    1
   95    92    93    1
   96    92    94    1
   97    94    95    1
   98    66    96    1
   99    92    96    1
  100    96    97    1
  101    96    98    1
  102    98    99    1
  103    85   100    1
  104    98   100    1
  105    98   101    1
  106   101   102    1
  107   101   103    1
  108   101   104    1
  109   104   105    1
  110   106   107    1
  111    12   108    1
  112   106   108    1
  113   106   109    1
  114   109   110    1
  115   109   111    1
  116   111   112    1
  117   109   113    1
  118   113   114    1
  119   113   115    1
  120   115   116    1
  121    87   117    1
  122   113   117    1
  123   117   118    1
  124   117   119    1
  125   119   120    1
  126   106   121    1
  127   119   121    1
  128   119   122    1
  129   122   123    1
  130   122   124    1
  131   122   125    1
  132   125   126    1
  133   127   128    1
  134   127   129    1
  135   127   130    1
  136   127   131    1
  137   131   132    1
  138   131   133    1
  139   133   134    1
  140   133   135    1
  141   133   136    1
  142   131   137    1
  143   137   138    1
  144   137   139    1
  145   137   140    1
  146   140   141    1
  147   140   142    1
  148   140   143    1
  149   143   144    1
  150   143   145    1
  151   143   146    1
@<TRIPOS>SUBSTRUCTURE
       1 MOL1            1 RESIDUE      1      MOL     
       2 MOL1          146 RESIDUE      1      MOL     
@<SCITEGIC>MOL_PROPERTY
VM2 Rank
SciTegic.value.IntegerValue
1

@<SCITEGIC>MOL_PROPERTY
Conf_Id
SciTegic.value.IntegerValue
25760

@<SCITEGIC>MOL_PROPERTY
Probability
SciTegic.value.DoubleValue
1.53

@<SCITEGIC>MOL_PROPERTY
Sum Probability
SciTegic.value.DoubleValue
1.53

@<SCITEGIC>MOL_PROPERTY
Delta G
SciTegic.value.DoubleValue
0.000

@<SCITEGIC>MOL_PROPERTY
G
SciTegic.value.DoubleValue
525.190

@<SCITEGIC>MOL_PROPERTY
E
SciTegic.value.DoubleValue
332.847

@<SCITEGIC>MOL_PROPERTY
-TS
SciTegic.value.DoubleValue
192.343

@<SCITEGIC>MOL_PROPERTY
U+W
SciTegic.value.DoubleValue
204.076

@<SCITEGIC>MOL_PROPERTY
U
SciTegic.value.DoubleValue
278.269

@<SCITEGIC>MOL_PROPERTY
W
SciTegic.value.DoubleValue
-74.193

@<SCITEGIC>MOL_PROPERTY
W(PB)
SciTegic.value.DoubleValue
-80.288

@<SCITEGIC>MOL_PROPERTY
W(SA)
SciTegic.value.DoubleValue
6.095

@<SCITEGIC>MOL_PROPERTY
Valence
SciTegic.value.DoubleValue
145.211

@<SCITEGIC>MOL_PROPERTY
Coulomb
SciTegic.value.DoubleValue
156.174

@<SCITEGIC>MOL_PROPERTY
VdW
SciTegic.value.DoubleValue
-23.115

@<SCITEGIC>MOL_PROPERTY
VdW6
SciTegic.value.DoubleValue
-171.677

@<SCITEGIC>MOL_PROPERTY
VdW12
SciTegic.value.DoubleValue
148.562

@<SCITEGIC>MOL_PROPERTY
Bond
SciTegic.value.DoubleValue
4.222

@<SCITEGIC>MOL_PROPERTY
Angle
SciTegic.value.DoubleValue
10.249

@<SCITEGIC>MOL_PROPERTY
Pdih
SciTegic.value.DoubleValue
130.739

@<SCITEGIC>MOL_PROPERTY
Idih
SciTegic.value.DoubleValue
0.000

@<SCITEGIC>MOL_PROPERTY
Tether
SciTegic.value.DoubleValue
0.000

@<TRIPOS>MOLECULE
CD_guest-s10_vm2_rndm.mol2 : vm2 host+ligand conformer 2
         146         151           2
SMALL
USER_CHARGES
 
@<TRIPOS>ATOM
       1    C1      16.400822   15.251120   20.802520 C.3        1 MOL1         0.2972
       2    H1      15.355333   15.113309   20.497619 H          1 MOL1         0.0751
       3    O1      16.661281   16.612115   21.201760 O.3        1 MOL1        -0.3740
       4    C2      16.760703   14.303043   21.976853 C.3        1 MOL1         0.1003
       5    H2      16.585018   13.275612   21.632287 H          1 MOL1         0.0783
       6    O2      15.948198   14.559337   23.130099 O.3        1 MOL1        -0.5519
       7    H3      16.318467   13.976613   23.830884 H          1 MOL1         0.3769
       8    C3      18.254879   14.429136   22.357326 C.3        1 MOL1         0.1053
       9    H4      18.408623   15.423827   22.796353 H          1 MOL1         0.0783
      10    O3      18.588531   13.420130   23.317613 O.3        1 MOL1        -0.5519
      11    H5      19.497833   13.631550   23.646272 H          1 MOL1         0.3769
      12    C4      19.169634   14.303307   21.111456 C.3        1 MOL1         0.1018
      13    H6      19.200310   13.256763   20.779537 H          1 MOL1         0.0783
      14    C5      18.686574   15.183015   19.929749 C.3        1 MOL1         0.1043
      15    H7      18.860128   16.239252   20.172325 H          1 MOL1         0.0783
      16    O4      17.277984   14.938568   19.700481 O.3        1 MOL1        -0.3740
      17    C6      19.431934   14.854719   18.619726 C.3        1 MOL1         0.0138
      18    H8      19.197998   13.825213   18.317110 H          1 MOL1         0.0794
      19    H9      20.514287   14.913451   18.790959 H          1 MOL1         0.0794
      20    O5      19.050267   15.777799   17.598457 O.3        1 MOL1        -0.5486
      21    H10     18.068307   15.754499   17.563506 H          1 MOL1         0.3769
      22    C7      14.819561   20.289107   21.569283 C.3        1 MOL1         0.2972
      23    H11     14.128323   21.132622   21.691973 H          1 MOL1         0.0751
      24    O6      16.143689   20.731973   21.207144 O.3        1 MOL1        -0.3740
      25    C8      14.895065   19.468992   22.881072 C.3        1 MOL1         0.1003
      26    H12     13.885980   19.087133   23.084111 H          1 MOL1         0.0783
      27    O7      15.321891   20.274351   23.987813 O.3        1 MOL1        -0.5519
      28    H13     15.486075   19.628413   24.710930 H          1 MOL1         0.3769
      29    C9      15.836076   18.254795   22.723414 C.3        1 MOL1         0.1053
      30    H14     16.862228   18.629386   22.619263 H          1 MOL1         0.0783
      31    O8      15.729517   17.424893   23.886226 O.3        1 MOL1        -0.5519
      32    H15     15.968401   16.508169   23.605199 H          1 MOL1         0.3769
      33    C10     15.499106   17.423309   21.462390 C.3        1 MOL1         0.1018
      34    H16     14.613044   16.811108   21.678874 H          1 MOL1         0.0783
      35    C11     15.244443   18.302594   20.203830 C.3        1 MOL1         0.1043
      36    H17     16.208828   18.700113   19.860910 H          1 MOL1         0.0783
      37    O9      14.354513   19.399202   20.532540 O.3        1 MOL1        -0.3740
      38    C12     14.615498   17.528345   19.023885 C.3        1 MOL1         0.0138
      39    H18     15.328794   16.773196   18.668617 H          1 MOL1         0.0794
      40    H19     14.443042   18.227955   18.194987 H          1 MOL1         0.0794
      41    O10     13.387549   16.904246   19.409794 O.3        1 MOL1        -0.5486
      42    H20     12.801085   17.625165   19.730591 H          1 MOL1         0.3769
      43    C13     18.456136   24.096815   20.647852 C.3        1 MOL1         0.2972
      44    H21     18.896393   25.069627   20.393787 H          1 MOL1         0.0751
      45    O11     19.467174   23.138747   21.024071 O.3        1 MOL1        -0.3740
      46    C14     17.410436   24.231826   21.785885 C.3        1 MOL1         0.1003
      47    H22     16.596341   24.863217   21.406351 H          1 MOL1         0.0783
      48    O12     17.963279   24.841595   22.958457 O.3        1 MOL1        -0.5519
      49    H23     17.240705   24.800011   23.625464 H          1 MOL1         0.3769
      50    C15     16.812575   22.850121   22.139775 C.3        1 MOL1         0.1053
      51    H24     17.612269   22.232140   22.570814 H          1 MOL1         0.0783
      52    O13     15.763647   23.018172   23.100283 O.3        1 MOL1        -0.5519
      53    H25     15.576308   22.117819   23.465839 H          1 MOL1         0.3769
      54    C16     16.274171   22.127950   20.875836 C.3        1 MOL1         0.1018
      55    H26     15.312123   22.569523   20.583412 H          1 MOL1         0.0783
      56    C17     17.247170   22.207083   19.666244 C.3        1 MOL1         0.1043
      57    H27     18.081939   21.517643   19.844997 H          1 MOL1         0.0783
      58    O14     17.755702   23.556584   19.508101 O.3        1 MOL1        -0.3740
      59    C18     16.578554   21.796399   18.335592 C.3        1 MOL1         0.0138
      60    H28     16.196675   20.770916   18.427402 H          1 MOL1         0.0794
      61    H29     17.339245   21.795995   17.543559 H          1 MOL1         0.0794
      62    O15     15.513223   22.689822   17.998660 O.3        1 MOL1        -0.5486
      63    H30     15.901658   23.593062   18.010579 H          1 MOL1         0.3769
      64    C19     23.384754   22.617818   22.141551 C.3        1 MOL1         0.2972
      65    H31     24.422671   22.710542   22.484991 H          1 MOL1         0.0751
      66    O16     23.141846   21.336467   21.523235 O.3        1 MOL1        -0.3740
      67    C20     22.408988   22.783758   23.333719 C.3        1 MOL1         0.1003
      68    H32     22.588087   23.776442   23.766351 H          1 MOL1         0.0783
      69    O17     22.655856   21.779701   24.333645 O.3        1 MOL1        -0.5519
      70    H33     23.595057   21.494338   24.229280 H          1 MOL1         0.3769
      71    C21     20.937328   22.725296   22.852391 C.3        1 MOL1         0.1053
      72    H34     20.731324   21.701996   22.521833 H          1 MOL1         0.0783
      73    O18     20.058401   23.065889   23.930596 O.3        1 MOL1        -0.5519
      74    H35     19.296774   23.553546   23.535976 H          1 MOL1         0.3769
      75    C22     20.665651   23.649964   21.639433 C.3        1 MOL1         0.1018
      76    H36     20.543184   24.682231   21.994321 H          1 MOL1         0.0783
      77    C23     21.782853   23.578736   20.560539 C.3        1 MOL1         0.1043
      78    H37     21.684809   22.623507   20.028171 H          1 MOL1         0.0783
      79    O19     23.089023   23.652666   21.180710 O.3        1 MOL1        -0.3740
      80    C24     21.693900   24.706892   19.508783 C.3        1 MOL1         0.0138
      81    H38     20.760294   24.594979   18.941734 H          1 MOL1         0.0794
      82    H39     22.522804   24.592605   18.797431 H          1 MOL1         0.0794
      83    O20     21.744215   25.996184   20.126246 O.3        1 MOL1        -0.5486
      84    H40     22.583995   26.024927   20.636767 H          1 MOL1         0.3769
      85    C25     25.076502   17.666985   21.156269 C.3        1 MOL1         0.2972
      86    H41     25.777662   16.854262   20.926658 H          1 MOL1         0.0751
      87    O21     23.782706   17.163234   21.539918 O.3        1 MOL1        -0.3740
      88    C26     25.611729   18.552213   22.312117 C.3        1 MOL1         0.1003
      89    H42     26.574251   18.970159   21.988697 H          1 MOL1         0.0783
      90    O22     25.801427   17.786472   23.515290 O.3        1 MOL1        -0.5519
      91    H43     26.574905   17.200126   23.373467 H          1 MOL1         0.3769
      92    C27     24.647660   19.731989   22.589380 C.3        1 MOL1         0.1053
      93    H44     23.719114   19.312783   22.996540 H          1 MOL1         0.0783
      94    O23     25.251026   20.594679   23.559899 O.3        1 MOL1        -0.5519
      95    H45     25.630572   19.984121   24.232315 H          1 MOL1         0.3769
      96    C28     24.298941   20.508370   21.286267 C.3        1 MOL1         0.1018
      97    H46     25.161087   21.111980   20.972598 H          1 MOL1         0.0783
      98    C29     23.909537   19.555829   20.125640 C.3        1 MOL1         0.1043
      99    H47     22.922956   19.121982   20.335976 H          1 MOL1         0.0783
     100    O24     24.906727   18.513078   20.000777 O.3        1 MOL1        -0.3740
     101    C30     23.837152   20.292877   18.772298 C.3        1 MOL1         0.0138
     102    H48     24.832858   20.678453   18.515252 H          1 MOL1         0.0794
     103    H49     23.159528   21.151869   18.862264 H          1 MOL1         0.0794
     104    O25     23.364951   19.404916   17.757571 O.3        1 MOL1        -0.5486
     105    H50     23.946584   18.613821   17.796652 H          1 MOL1         0.3769
     106    C31     21.475568   13.781227   21.746922 C.3        1 MOL1         0.2972
     107    H51     21.040392   12.775804   21.810943 H          1 MOL1         0.0751
     108    O26     20.471471   14.786185   21.490159 O.3        1 MOL1        -0.3740
     109    C32     22.209230   14.126812   23.065509 C.3        1 MOL1         0.1003
     110    H52     23.030638   13.408582   23.186693 H          1 MOL1         0.0783
     111    O27     21.328136   14.034373   24.193023 O.3        1 MOL1        -0.5519
     112    H53     21.835155   14.431757   24.936436 H          1 MOL1         0.3769
     113    C33     22.818043   15.542974   22.987906 C.3        1 MOL1         0.1053
     114    H54     21.986503   16.253915   22.949928 H          1 MOL1         0.0783
     115    O28     23.619391   15.794390   24.148627 O.3        1 MOL1        -0.5519
     116    H55     24.143068   16.611416   23.963753 H          1 MOL1         0.3769
     117    C34     23.672902   15.738046   21.711901 C.3        1 MOL1         0.1018
     118    H56     24.650468   15.264927   21.874347 H          1 MOL1         0.0783
     119    C35     23.006158   15.164758   20.427305 C.3        1 MOL1         0.1043
     120    H57     22.202789   15.849191   20.124582 H          1 MOL1         0.0783
     121    O29     22.450596   13.849446   20.685084 O.3        1 MOL1        -0.3740
     122    C36     23.979829   15.037275   19.234706 C.3        1 MOL1         0.0138
     123    H58     24.319289   16.038460   18.939230 H          1 MOL1         0.0794
     124    H59     23.437380   14.612282   18.379530 H          1 MOL1         0.0794
     125    O30     25.101722   14.215290   19.569397 O.3        1 MOL1        -0.5486
     126    H60     24.734597   13.344134   19.839399 H          1 MOL1         0.3769
     127    N1      20.245791   20.400923   25.237802 N.4        1 MOL1        -0.5937
     128    H1      20.911048   19.928594   25.853283 H          1 MOL1         0.3684
     129    H2      19.515242   20.820215   25.817795 H          1 MOL1         0.3684
     130    H3      20.756543   21.189541   24.797879 H          1 MOL1         0.3684
     131    C1      19.671889   19.470188   24.205102 C.3        1 MOL1         0.1270
     132    H4      18.982194   20.069979   23.603845 H          1 MOL1         0.0960
     133    C2      18.881621   18.341699   24.890271 C.3        1 MOL1        -0.2382
     134    H5      19.528731   17.745851   25.545607 H          1 MOL1         0.1009
     135    H6      18.432161   17.663275   24.158127 H          1 MOL1         0.1009
     136    H7      18.066437   18.753414   25.497744 H          1 MOL1         0.1009
     137    C3      20.769694   18.902798   23.275425 C.3        1 MOL1        -0.1392
     138    H8      21.466260   19.702402   23.003627 H          1 MOL1         0.0998
     139    H9      21.365901   18.170593   23.833249 H          1 MOL1         0.0998
     140    C4      20.236323   18.266826   21.966385 C.3        1 MOL1        -0.1302
     141    H10     19.552844   17.439285   22.192859 H          1 MOL1         0.0998
     142    H11     21.076991   17.821947   21.417267 H          1 MOL1         0.0998
     143    C5      19.533404   19.288394   21.044702 C.3        1 MOL1        -0.2317
     144    H12     19.187348   18.801427   20.123783 H          1 MOL1         0.1009
     145    H13     18.659315   19.737231   21.530732 H          1 MOL1         0.1009
     146    H14     20.218420   20.097439   20.758424 H          1 MOL1         0.1009
@<TRIPOS>BOND
    1     1     2    1
    2     1     3    1
    3     1     4    1
    4     4     5    1
    5     4     6    1
    6     6     7    1
    7     4     8    1
    8     8     9    1
    9     8    10    1
   10    10    11    1
   11     8    12    1
   12    12    13    1
   13    12    14    1
   14    14    15    1
   15     1    16    1
   16    14    16    1
   17    14    17    1
   18    17    18    1
   19    17    19    1
   20    17    20    1
   21    20    21    1
   22    22    23    1
   23    22    24    1
   24    22    25    1
   25    25    26    1
   26    25    27    1
   27    27    28    1
   28    25    29    1
   29    29    30    1
   30    29    31    1
   31    31    32    1
   32     3    33    1
   33    29    33    1
   34    33    34    1
   35    33    35    1
   36    35    36    1
   37    22    37    1
   38    35    37    1
   39    35    38    1
   40    38    39    1
   41    38    40    1
   42    38    41    1
   43    41    42    1
   44    43    44    1
   45    43    45    1
   46    43    46    1
   47    46    47    1
   48    46    48    1
   49    48    49    1
   50    46    50    1
   51    50    51    1
   52    50    52    1
   53    52    53    1
   54    24    54    1
   55    50    54    1
   56    54    55    1
   57    54    56    1
   58    56    57    1
   59    43    58    1
   60    56    58    1
   61    56    59    1
   62    59    60    1
   63    59    61    1
   64    59    62    1
   65    62    63    1
   66    64    65    1
   67    64    66    1
   68    64    67    1
   69    67    68    1
   70    67    69    1
   71    69    70    1
   72    67    71    1
   73    71    72    1
   74    71    73    1
   75    73    74    1
   76    45    75    1
   77    71    75    1
   78    75    76    1
   79    75    77    1
   80    77    78    1
   81    64    79    1
   82    77    79    1
   83    77    80    1
   84    80    81    1
   85    80    82    1
   86    80    83    1
   87    83    84    1
   88    85    86    1
   89    85    87    1
   90    85    88    1
   91    88    89    1
   92    88    90    1
   93    90    91    1
   94    88    92    1
   95    92    93    1
   96    92    94    1
   97    94    95    1
   98    66    96    1
   99    92    96    1
  100    96    97    1
  101    96    98    1
  102    98    99    1
  103    85   100    1
  104    98   100    1
  105    98   101    1
  106   101   102    1
  107   101   103    1
  108   101   104    1
  109   104   105    1
  110   106   107    1
  111    12   108    1
  112   106   108    1
  113   106   109    1
  114   109   110    1
  115   109   111    1
  116   111   112    1
  117   109   113    1
  118   113   114    1
  119   113   115    1
  120   115   116    1
  121    87   117    1
  122   113   117    1
  123   117   118    1
  124   117   119    1
  125   119   120    1
  126   106   121    1
  127   119   121    1
  128   119   122    1
  129   122   123    1
  130   122   124    1
  131   122   125    1
  132   125   126    1
  133   127   128    1
  134   127   129    1
  135   127   130    1
  136   127   131    1
  137   131   132    1
  138   131   133    1
  139   133   134    1
  140   133   135    1
  141   133   136    1
  142   131   137    1
  143   137   138    1
  144   137   139    1
  145   137   140    1
  146   140   141    1
  147   140   142    1
  148   140   143    1
  149   143   144    1
  150   143   145    1
  151   143   146    1
@<TRIPOS>SUBSTRUCTURE
       1 MOL1            1 RESIDUE      1      MOL     
       2 MOL1          146 RESIDUE      1      MOL     
@<SCITEGIC>MOL_PROPERTY
VM2 Rank
SciTegic.value.IntegerValue
2

@<SCITEGIC>MOL_PROPERTY
Conf_Id
SciTegic.value.IntegerValue
22478

@<SCITEGIC>MOL_PROPERTY
Probability
SciTegic.value.DoubleValue
1.47

@<SCITEGIC>MOL_PROPERTY
Sum Probability
SciTegic.value.DoubleValue
3.00

@<SCITEGIC>MOL_PROPERTY
Delta G
SciTegic.value.DoubleValue
0.023

@<SCITEGIC>MOL_PROPERTY
G
SciTegic.value.DoubleValue
525.212

@<SCITEGIC>MOL_PROPERTY
E
SciTegic.value.DoubleValue
332.710

@<SCITEGIC>MOL_PROPERTY
-TS
SciTegic.value.DoubleValue
192.502

@<SCITEGIC>MOL_PROPERTY
U+W
SciTegic.value.DoubleValue
203.939

@<SCITEGIC>MOL_PROPERTY
U
SciTegic.value.DoubleValue
278.302

@<SCITEGIC>MOL_PROPERTY
W
SciTegic.value.DoubleValue
-74.363

@<SCITEGIC>MOL_PROPERTY
W(PB)
SciTegic.value.DoubleValue
-80.458

@<SCITEGIC>MOL_PROPERTY
W(SA)
SciTegic.value.DoubleValue
6.095

@<SCITEGIC>MOL_PROPERTY
Valence
SciTegic.value.DoubleValue
145.047

@<SCITEGIC>MOL_PROPERTY
Coulomb
SciTegic.value.DoubleValue
156.080

@<SCITEGIC>MOL_PROPERTY
VdW
SciTegic.value.DoubleValue
-22.824

@<SCITEGIC>MOL_PROPERTY
VdW6
SciTegic.value.DoubleValue
-172.063

@<SCITEGIC>MOL_PROPERTY
VdW12
SciTegic.value.DoubleValue
149.239

@<SCITEGIC>MOL_PROPERTY
Bond
SciTegic.value.DoubleValue
4.251

@<SCITEGIC>MOL_PROPERTY
Angle
SciTegic.value.DoubleValue
10.323

@<SCITEGIC>MOL_PROPERTY
Pdih
SciTegic.value.DoubleValue
130.473

@<SCITEGIC>MOL_PROPERTY
Idih
SciTegic.value.DoubleValue
0.000

@<SCITEGIC>MOL_PROPERTY
Tether
SciTegic.value.DoubleValue
0.000

@<TRIPOS>MOLECULE
CD_guest-s10_vm2_rndm.mol2 : vm2 host+ligand conformer 3
         146         151           2
SMALL
USER_CHARGES
 
@<TRIPOS>ATOM
       1    C1      16.335742   15.247908   20.859338 C.3        1 MOL1         0.2972
       2    H1      15.286128   15.109705   20.569140 H          1 MOL1         0.0751
       3    O1      16.600250   16.608104   21.258750 O.3        1 MOL1        -0.3740
       4    C2      16.713622   14.296977   22.025792 C.3        1 MOL1         0.1003
       5    H2      16.534998   13.270203   21.680781 H          1 MOL1         0.0783
       6    O2      15.916855   14.548436   23.190974 O.3        1 MOL1        -0.5519
       7    H3      16.298618   13.965112   23.885078 H          1 MOL1         0.3769
       8    C3      18.212797   14.424864   22.385493 C.3        1 MOL1         0.1053
       9    H4      18.371330   15.419691   22.822539 H          1 MOL1         0.0783
      10    O3      18.561618   13.416396   23.340991 O.3        1 MOL1        -0.5519
      11    H5      19.471049   13.635585   23.664111 H          1 MOL1         0.3769
      12    C4      19.109305   14.300752   21.126176 C.3        1 MOL1         0.1018
      13    H6      19.135484   13.254893   20.791686 H          1 MOL1         0.0783
      14    C5      18.609001   15.182926   19.953542 C.3        1 MOL1         0.1043
      15    H7      18.786175   16.238555   20.196224 H          1 MOL1         0.0783
      16    O4      17.197259   14.939440   19.743797 O.3        1 MOL1        -0.3740
      17    C6      19.335705   14.856998   18.632395 C.3        1 MOL1         0.0138
      18    H8      19.083861   13.833916   18.322408 H          1 MOL1         0.0794
      19    H9      20.420475   14.898139   18.792503 H          1 MOL1         0.0794
      20    O5      18.957699   15.795566   17.623995 O.3        1 MOL1        -0.5486
      21    H10     17.975341   15.784767   17.595248 H          1 MOL1         0.3769
      22    C7      14.763497   20.283506   21.662228 C.3        1 MOL1         0.2972
      23    H11     14.075869   21.128221   21.796415 H          1 MOL1         0.0751
      24    O6      16.084804   20.723928   21.289618 O.3        1 MOL1        -0.3740
      25    C8      14.851477   19.457463   22.969087 C.3        1 MOL1         0.1003
      26    H12     13.844482   19.075031   23.181199 H          1 MOL1         0.0783
      27    O7      15.290503   20.259489   24.073574 O.3        1 MOL1        -0.5519
      28    H13     15.462250   19.611526   24.793102 H          1 MOL1         0.3769
      29    C9      15.791103   18.244300   22.795938 C.3        1 MOL1         0.1053
      30    H14     16.815856   18.619798   22.682252 H          1 MOL1         0.0783
      31    O8      15.698007   17.409470   23.956314 O.3        1 MOL1        -0.5519
      32    H15     15.936825   16.494522   23.669418 H          1 MOL1         0.3769
      33    C10     15.440996   17.418674   21.534553 C.3        1 MOL1         0.1018
      34    H16     14.556792   16.805956   21.757071 H          1 MOL1         0.0783
      35    C11     15.174474   18.303722   20.282209 C.3        1 MOL1         0.1043
      36    H17     16.136198   18.700935   19.931019 H          1 MOL1         0.0783
      37    O9      14.288799   19.400925   20.623523 O.3        1 MOL1        -0.3740
      38    C12     14.533538   17.534285   19.105614 C.3        1 MOL1         0.0138
      39    H18     15.241661   16.777914   18.742657 H          1 MOL1         0.0794
      40    H19     14.356452   18.236137   18.279644 H          1 MOL1         0.0794
      41    O10     13.307046   16.912898   19.500412 O.3        1 MOL1        -0.5486
      42    H20     12.725959   17.634247   19.829861 H          1 MOL1         0.3769
      43    C13     18.388249   24.088297   20.683139 C.3        1 MOL1         0.2972
      44    H21     18.819547   25.061638   20.416098 H          1 MOL1         0.0751
      45    O11     19.409860   23.134618   21.041640 O.3        1 MOL1        -0.3740
      46    C14     17.365610   24.223094   21.842132 C.3        1 MOL1         0.1003
      47    H22     16.544198   24.854417   21.478639 H          1 MOL1         0.0783
      48    O12     17.940525   24.833123   23.003824 O.3        1 MOL1        -0.5519
      49    H23     17.230244   24.794155   23.683989 H          1 MOL1         0.3769
      50    C15     16.775038   22.840901   22.206935 C.3        1 MOL1         0.1053
      51    H24     17.581754   22.224760   22.627517 H          1 MOL1         0.0783
      52    O13     15.738345   23.007820   23.180683 O.3        1 MOL1        -0.5519
      53    H25     15.555559   22.107234   23.548170 H          1 MOL1         0.3769
      54    C16     16.219830   22.116629   20.951543 C.3        1 MOL1         0.1018
      55    H26     15.258583   22.562999   20.663265 H          1 MOL1         0.0783
      56    C17     17.179824   22.183709   19.733217 C.3        1 MOL1         0.1043
      57    H27     18.019289   21.497675   19.902932 H          1 MOL1         0.0783
      58    O14     17.664474   23.539977   19.561231 O.3        1 MOL1        -0.3740
      59    C18     16.476103   21.767159   18.425304 C.3        1 MOL1         0.0138
      60    H28     15.685456   22.492705   18.191529 H          1 MOL1         0.0794
      61    H29     15.999659   20.787809   18.565733 H          1 MOL1         0.0794
      62    O15     17.426151   21.698558   17.360573 O.3        1 MOL1        -0.5486
      63    H30     17.902873   22.558609   17.364608 H          1 MOL1         0.3769
      64    C19     23.344565   22.607477   22.079054 C.3        1 MOL1         0.2972
      65    H31     24.389758   22.695755   22.400914 H          1 MOL1         0.0751
      66    O16     23.084038   21.327242   21.464510 O.3        1 MOL1        -0.3740
      67    C20     22.395247   22.774756   23.291935 C.3        1 MOL1         0.1003
      68    H32     22.587147   23.766048   23.722253 H          1 MOL1         0.0783
      69    O17     22.659798   21.768011   24.284760 O.3        1 MOL1        -0.5519
      70    H33     23.594038   21.475960   24.156388 H          1 MOL1         0.3769
      71    C21     20.913605   22.722667   22.841446 C.3        1 MOL1         0.1053
      72    H34     20.696981   21.699947   22.515938 H          1 MOL1         0.0783
      73    O18     20.058818   23.066800   23.937784 O.3        1 MOL1        -0.5519
      74    H35     19.288006   23.551968   23.558201 H          1 MOL1         0.3769
      75    C22     20.618992   23.647628   21.633661 C.3        1 MOL1         0.1018
      76    H36     20.501981   24.679820   21.990527 H          1 MOL1         0.0783
      77    C23     21.715360   23.577082   20.533427 C.3        1 MOL1         0.1043
      78    H37     21.606887   22.623257   20.000698 H          1 MOL1         0.0783
      79    O19     23.032220   23.647684   21.129570 O.3        1 MOL1        -0.3740
      80    C24     21.608954   24.707360   19.485729 C.3        1 MOL1         0.0138
      81    H38     20.665305   24.597518   18.935237 H          1 MOL1         0.0794
      82    H39     22.425144   24.593096   18.759698 H          1 MOL1         0.0794
      83    O20     21.671749   25.995475   20.104576 O.3        1 MOL1        -0.5486
      84    H40     22.520786   26.022069   20.599674 H          1 MOL1         0.3769
      85    C25     25.002082   17.655897   21.037219 C.3        1 MOL1         0.2972
      86    H41     25.694966   16.840972   20.790831 H          1 MOL1         0.0751
      87    O21     23.716295   17.154775   21.450035 O.3        1 MOL1        -0.3740
      88    C26     25.568290   18.539488   22.179814 C.3        1 MOL1         0.1003
      89    H42     26.521874   18.958176   21.831781 H          1 MOL1         0.0783
      90    O22     25.789469   17.771427   23.376157 O.3        1 MOL1        -0.5519
      91    H43     26.560215   17.186830   23.213729 H          1 MOL1         0.3769
      92    C27     24.612200   19.718595   22.484964 C.3        1 MOL1         0.1053
      93    H44     23.691052   19.297630   22.906899 H          1 MOL1         0.0783
      94    O23     25.234742   20.572756   23.451128 O.3        1 MOL1        -0.5519
      95    H45     25.629563   19.955934   24.108862 H          1 MOL1         0.3769
      96    C28     24.238628   20.504717   21.195002 C.3        1 MOL1         0.1018
      97    H46     25.093081   21.114612   20.872880 H          1 MOL1         0.0783
      98    C29     23.829196   19.558199   20.034232 C.3        1 MOL1         0.1043
      99    H47     22.846533   19.127107   20.266591 H          1 MOL1         0.0783
     100    O24     24.806543   18.499567   19.884380 O.3        1 MOL1        -0.3740
     101    C30     23.716418   20.284621   18.675286 C.3        1 MOL1         0.0138
     102    H48     22.965110   21.081165   18.754482 H          1 MOL1         0.0794
     103    H49     23.359997   19.569559   17.921888 H          1 MOL1         0.0794
     104    O25     24.976580   20.833751   18.279083 O.3        1 MOL1        -0.5486
     105    H50     25.618533   20.089681   18.308942 H          1 MOL1         0.3769
     106    C31     21.419408   13.777724   21.746543 C.3        1 MOL1         0.2972
     107    H51     20.980486   12.775539   21.832381 H          1 MOL1         0.0751
     108    O26     20.416899   14.783164   21.484937 O.3        1 MOL1        -0.3740
     109    C32     22.170301   14.142206   23.050001 C.3        1 MOL1         0.1003
     110    H52     22.991905   13.424359   23.172125 H          1 MOL1         0.0783
     111    O27     21.302949   14.069116   24.189586 O.3        1 MOL1        -0.5519
     112    H53     21.819758   14.477022   24.920421 H          1 MOL1         0.3769
     113    C33     22.780385   15.555906   22.942105 C.3        1 MOL1         0.1053
     114    H54     21.949215   16.266940   22.905326 H          1 MOL1         0.0783
     115    O28     23.597801   15.823484   24.087886 O.3        1 MOL1        -0.5519
     116    H55     24.128647   16.630235   23.879757 H          1 MOL1         0.3769
     117    C34     23.617121   15.732213   21.651137 C.3        1 MOL1         0.1018
     118    H56     24.599559   15.267852   21.809519 H          1 MOL1         0.0783
     119    C35     22.938154   15.132771   20.384846 C.3        1 MOL1         0.1043
     120    H57     22.132721   15.811964   20.076130 H          1 MOL1         0.0783
     121    O29     22.382909   13.823778   20.673180 O.3        1 MOL1        -0.3740
     122    C36     23.900484   14.980834   19.185798 C.3        1 MOL1         0.0138
     123    H58     24.236754   15.975864   18.866103 H          1 MOL1         0.0794
     124    H59     23.350035   14.538053   18.344882 H          1 MOL1         0.0794
     125    O30     25.025692   14.165913   19.526697 O.3        1 MOL1        -0.5486
     126    H60     24.661448   13.300103   19.817090 H          1 MOL1         0.3769
     127    N1      20.262225   20.402415   25.243164 N.4        1 MOL1        -0.5937
     128    H1      20.771728   21.186671   24.794086 H          1 MOL1         0.3684
     129    H2      20.934074   19.924301   25.846897 H          1 MOL1         0.3684
     130    H3      19.545518   20.827904   25.835777 H          1 MOL1         0.3684
     131    C1      19.662483   19.476894   24.220534 C.3        1 MOL1         0.1270
     132    H4      18.967227   20.082665   23.631835 H          1 MOL1         0.0960
     133    C2      18.875136   18.354430   24.918949 C.3        1 MOL1        -0.2382
     134    H5      18.074219   18.772430   25.540925 H          1 MOL1         0.1009
     135    H6      19.528861   17.752936   25.562462 H          1 MOL1         0.1009
     136    H7      18.407297   17.680054   24.194620 H          1 MOL1         0.1009
     137    C3      20.739396   18.901707   23.271417 C.3        1 MOL1        -0.1392
     138    H8      21.435200   19.697054   22.985292 H          1 MOL1         0.0998
     139    H9      21.341791   18.167520   23.819864 H          1 MOL1         0.0998
     140    C4      20.178468   18.266146   21.973592 C.3        1 MOL1        -0.1302
     141    H10     19.500314   17.438229   22.214448 H          1 MOL1         0.0998
     142    H11     21.007280   17.821805   21.406374 H          1 MOL1         0.0998
     143    C5      19.455000   19.287757   21.068117 C.3        1 MOL1        -0.2317
     144    H12     18.589755   19.732745   21.572822 H          1 MOL1         0.1009
     145    H13     20.131022   20.100143   20.770538 H          1 MOL1         0.1009
     146    H14     19.090606   18.802953   20.153025 H          1 MOL1         0.1009
@<TRIPOS>BOND
    1     1     2    1
    2     1     3    1
    3     1     4    1
    4     4     5    1
    5     4     6    1
    6     6     7    1
    7     4     8    1
    8     8     9    1
    9     8    10    1
   10    10    11    1
   11     8    12    1
   12    12    13    1
   13    12    14    1
   14    14    15    1
   15     1    16    1
   16    14    16    1
   17    14    17    1
   18    17    18    1
   19    17    19    1
   20    17    20    1
   21    20    21    1
   22    22    23    1
   23    22    24    1
   24    22    25    1
   25    25    26    1
   26    25    27    1
   27    27    28    1
   28    25    29    1
   29    29    30    1
   30    29    31    1
   31    31    32    1
   32     3    33    1
   33    29    33    1
   34    33    34    1
   35    33    35    1
   36    35    36    1
   37    22    37    1
   38    35    37    1
   39    35    38    1
   40    38    39    1
   41    38    40    1
   42    38    41    1
   43    41    42    1
   44    43    44    1
   45    43    45    1
   46    43    46    1
   47    46    47    1
   48    46    48    1
   49    48    49    1
   50    46    50    1
   51    50    51    1
   52    50    52    1
   53    52    53    1
   54    24    54    1
   55    50    54    1
   56    54    55    1
   57    54    56    1
   58    56    57    1
   59    43    58    1
   60    56    58    1
   61    56    59    1
   62    59    60    1
   63    59    61    1
   64    59    62    1
   65    62    63    1
   66    64    65    1
   67    64    66    1
   68    64    67    1
   69    67    68    1
   70    67    69    1
   71    69    70    1
   72    67    71    1
   73    71    72    1
   74    71    73    1
   75    73    74    1
   76    45    75    1
   77    71    75    1
   78    75    76    1
   79    75    77    1
   80    77    78    1
   81    64    79    1
   82    77    79    1
   83    77    80    1
   84    80    81    1
   85    80    82    1
   86    80    83    1
   87    83    84    1
   88    85    86    1
   89    85    87    1
   90    85    88    1
   91    88    89    1
   92    88    90    1
   93    90    91    1
   94    88    92    1
   95    92    93    1
   96    92    94    1
   97    94    95    1
   98    66    96    1
   99    92    96    1
  100    96    97    1
  101    96    98    1
  102    98    99    1
  103    85   100    1
  104    98   100    1
  105    98   101    1
  106   101   102    1
  107   101   103    1
  108   101   104    1
  109   104   105    1
  110   106   107    1
  111    12   108    1
  112   106   108    1
  113   106   109    1
  114   109   110    1
  115   109   111    1
  116   111   112    1
  117   109   113    1
  118   113   114    1
  119   113   115    1
  120   115   116    1
  121    87   117    1
  122   113   117    1
  123   117   118    1
  124   117   119    1
  125   119   120    1
  126   106   121    1
  127   119   121    1
  128   119   122    1
  129   122   123    1
  130   122   124    1
  131   122   125    1
  132   125   126    1
  133   127   128    1
  134   127   129    1
  135   127   130    1
  136   127   131    1
  137   131   132    1
  138   131   133    1
  139   133   134    1
  140   133   135    1
  141   133   136    1
  142   131   137    1
  143   137   138    1
  144   137   139    1
  145   137   140    1
  146   140   141    1
  147   140   142    1
  148   140   143    1
  149   143   144    1
  150   143   145    1
  151   143   146    1
@<TRIPOS>SUBSTRUCTURE
       1 MOL1            1 RESIDUE      1      MOL     
       2 MOL1          146 RESIDUE      1      MOL     
@<SCITEGIC>MOL_PROPERTY
VM2 Rank
SciTegic.value.IntegerValue
3

@<SCITEGIC>MOL_PROPERTY
Conf_Id
SciTegic.value.IntegerValue
22721

@<SCITEGIC>MOL_PROPERTY
Probability
SciTegic.value.DoubleValue
1.46

@<SCITEGIC>MOL_PROPERTY
Sum Probability
SciTegic.value.DoubleValue
4.46

@<SCITEGIC>MOL_PROPERTY
Delta G
SciTegic.value.DoubleValue
0.026

@<SCITEGIC>MOL_PROPERTY
G
SciTegic.value.DoubleValue
525.216

@<SCITEGIC>MOL_PROPERTY
E
SciTegic.value.DoubleValue
332.669

@<SCITEGIC>MOL_PROPERTY
-TS
SciTegic.value.DoubleValue
192.547

@<SCITEGIC>MOL_PROPERTY
U+W
SciTegic.value.DoubleValue
203.898

@<SCITEGIC>MOL_PROPERTY
U
SciTegic.value.DoubleValue
278.053

@<SCITEGIC>MOL_PROPERTY
W
SciTegic.value.DoubleValue
-74.141

@<SCITEGIC>MOL_PROPERTY
W(PB)
SciTegic.value.DoubleValue
-80.273

@<SCITEGIC>MOL_PROPERTY
W(SA)
SciTegic.value.DoubleValue
6.133

@<SCITEGIC>MOL_PROPERTY
Valence
SciTegic.value.DoubleValue
145.004

@<SCITEGIC>MOL_PROPERTY
Coulomb
SciTegic.value.DoubleValue
155.777

@<SCITEGIC>MOL_PROPERTY
VdW
SciTegic.value.DoubleValue
-22.729

@<SCITEGIC>MOL_PROPERTY
VdW6
SciTegic.value.DoubleValue
-171.982

@<SCITEGIC>MOL_PROPERTY
VdW12
SciTegic.value.DoubleValue
149.254

@<SCITEGIC>MOL_PROPERTY
Bond
SciTegic.value.DoubleValue
4.263

@<SCITEGIC>MOL_PROPERTY
Angle
SciTegic.value.DoubleValue
10.351

@<SCITEGIC>MOL_PROPERTY
Pdih
SciTegic.value.DoubleValue
130.390

@<SCITEGIC>MOL_PROPERTY
Idih
SciTegic.value.DoubleValue
0.000

@<SCITEGIC>MOL_PROPERTY
Tether
SciTegic.value.DoubleValue
0.000

@<TRIPOS>MOLECULE
CD_guest-s10_vm2_rndm.mol2 : vm2 host+ligand conformer 4
         146         151           2
SMALL
USER_CHARGES
 
@<TRIPOS>ATOM
       1    C1      16.366501   15.240886   20.833837 C.3        1 MOL1         0.2972
       2    H1      15.319403   15.103096   20.534509 H          1 MOL1         0.0751
       3    O1      16.629297   16.602239   21.230156 O.3        1 MOL1        -0.3740
       4    C2      16.731920   14.293958   22.007531 C.3        1 MOL1         0.1003
       5    H2      16.552658   13.266276   21.665574 H          1 MOL1         0.0783
       6    O2      15.926444   14.553374   23.165046 O.3        1 MOL1        -0.5519
       7    H3      16.299811   13.971184   23.864625 H          1 MOL1         0.3769
       8    C3      18.228450   14.418203   22.379455 C.3        1 MOL1         0.1053
       9    H4      18.386056   15.413530   22.815665 H          1 MOL1         0.0783
      10    O3      18.565638   13.410904   23.340306 O.3        1 MOL1        -0.5519
      11    H5      19.471791   13.629509   23.672877 H          1 MOL1         0.3769
      12    C4      19.135784   14.288797   21.128319 C.3        1 MOL1         0.1018
      13    H6      19.162206   13.242243   20.796036 H          1 MOL1         0.0783
      14    C5      18.647716   15.170034   19.949928 C.3        1 MOL1         0.1043
      15    H7      18.823587   16.225632   20.193407 H          1 MOL1         0.0783
      16    O4      17.237833   14.927507   19.727375 O.3        1 MOL1        -0.3740
      17    C6      19.386356   14.843378   18.635659 C.3        1 MOL1         0.0138
      18    H8      19.136976   13.820333   18.323556 H          1 MOL1         0.0794
      19    H9      20.469627   14.884226   18.805705 H          1 MOL1         0.0794
      20    O5      19.017636   15.782217   17.623906 O.3        1 MOL1        -0.5486
      21    H10     18.035724   15.768040   17.583463 H          1 MOL1         0.3769
      22    C7      14.793798   20.281061   21.598456 C.3        1 MOL1         0.2972
      23    H11     14.105330   21.126562   21.723024 H          1 MOL1         0.0751
      24    O6      16.116466   20.719549   21.225890 O.3        1 MOL1        -0.3740
      25    C8      14.876579   19.465312   22.912481 C.3        1 MOL1         0.1003
      26    H12     13.868149   19.086241   23.123818 H          1 MOL1         0.0783
      27    O7      15.312731   20.273981   24.013192 O.3        1 MOL1        -0.5519
      28    H13     15.479662   19.630660   24.737987 H          1 MOL1         0.3769
      29    C9      15.814172   18.248697   22.752619 C.3        1 MOL1         0.1053
      30    H14     16.840330   18.621093   22.641445 H          1 MOL1         0.0783
      31    O8      15.713300   17.422084   23.918276 O.3        1 MOL1        -0.5519
      32    H15     15.950305   16.504500   23.638454 H          1 MOL1         0.3769
      33    C10     15.468645   17.413971   21.496015 C.3        1 MOL1         0.1018
      34    H16     14.584168   16.802223   21.720134 H          1 MOL1         0.0783
      35    C11     15.205570   18.289491   20.236501 C.3        1 MOL1         0.1043
      36    H17     16.167888   18.684455   19.884985 H          1 MOL1         0.0783
      37    O9      14.319769   19.388551   20.568090 O.3        1 MOL1        -0.3740
      38    C12     14.566691   17.512380   19.063790 C.3        1 MOL1         0.0138
      39    H18     15.276304   16.755261   18.705370 H          1 MOL1         0.0794
      40    H19     14.388754   18.209653   18.234080 H          1 MOL1         0.0794
      41    O10     13.340955   16.891024   19.460960 O.3        1 MOL1        -0.5486
      42    H20     12.757787   17.613671   19.783881 H          1 MOL1         0.3769
      43    C13     18.434643   24.073305   20.627397 C.3        1 MOL1         0.2972
      44    H21     18.875392   25.043533   20.364436 H          1 MOL1         0.0751
      45    O11     19.446753   23.113558   20.996938 O.3        1 MOL1        -0.3740
      46    C14     17.401020   24.216990   21.775490 C.3        1 MOL1         0.1003
      47    H22     16.584965   24.848953   21.401146 H          1 MOL1         0.0783
      48    O12     17.967269   24.830938   22.939409 O.3        1 MOL1        -0.5519
      49    H23     17.251310   24.794621   23.613829 H          1 MOL1         0.3769
      50    C15     16.802615   22.838825   22.141952 C.3        1 MOL1         0.1053
      51    H24     17.605011   22.219995   22.566684 H          1 MOL1         0.0783
      52    O13     15.764742   23.013909   23.113169 O.3        1 MOL1        -0.5519
      53    H25     15.576143   22.115142   23.481988 H          1 MOL1         0.3769
      54    C16     16.247941   22.113537   20.886986 C.3        1 MOL1         0.1018
      55    H26     15.284298   22.557317   20.603284 H          1 MOL1         0.0783
      56    C17     17.208054   22.184035   19.666627 C.3        1 MOL1         0.1043
      57    H27     18.041908   21.491978   19.839224 H          1 MOL1         0.0783
      58    O14     17.720484   23.530686   19.497330 O.3        1 MOL1        -0.3740
      59    C18     16.523265   21.770797   18.345013 C.3        1 MOL1         0.0138
      60    H28     16.138032   20.747356   18.445149 H          1 MOL1         0.0794
      61    H29     17.275223   21.763975   17.544729 H          1 MOL1         0.0794
      62    O15     15.458122   22.667386   18.016048 O.3        1 MOL1        -0.5486
      63    H30     15.850467   23.569007   18.020001 H          1 MOL1         0.3769
      64    C19     23.371572   22.585056   22.081542 C.3        1 MOL1         0.2972
      65    H31     24.413024   22.675168   22.414844 H          1 MOL1         0.0751
      66    O16     23.118050   21.301313   21.471400 O.3        1 MOL1        -0.3740
      67    C20     22.408457   22.759694   23.282476 C.3        1 MOL1         0.1003
      68    H32     22.595435   23.753721   23.708636 H          1 MOL1         0.0783
      69    O17     22.662050   21.759587   24.284740 O.3        1 MOL1        -0.5519
      70    H33     23.597451   21.466263   24.168268 H          1 MOL1         0.3769
      71    C21     20.931926   22.704870   22.815542 C.3        1 MOL1         0.1053
      72    H34     20.718724   21.680667   22.492772 H          1 MOL1         0.0783
      73    O18     20.065045   23.054803   23.900474 O.3        1 MOL1        -0.5519
      74    H35     19.301471   23.543367   23.510804 H          1 MOL1         0.3769
      75    C22     20.651923   23.624159   21.600020 C.3        1 MOL1         0.1018
      76    H36     20.535113   24.658359   21.951149 H          1 MOL1         0.0783
      77    C23     21.760069   23.546024   20.512172 C.3        1 MOL1         0.1043
      78    H37     21.656813   22.589027   19.984191 H          1 MOL1         0.0783
      79    O19     23.070314   23.619576   21.122329 O.3        1 MOL1        -0.3740
      80    C24     21.666076   24.670111   19.456591 C.3        1 MOL1         0.0138
      81    H38     20.728456   24.557669   18.896340 H          1 MOL1         0.0794
      82    H39     22.490157   24.550988   18.740319 H          1 MOL1         0.0794
      83    O20     21.723008   25.961859   20.068406 O.3        1 MOL1        -0.5486
      84    H40     22.566853   25.991070   20.572164 H          1 MOL1         0.3769
      85    C25     25.038474   17.626974   21.088206 C.3        1 MOL1         0.2972
      86    H41     25.733132   16.809614   20.855252 H          1 MOL1         0.0751
      87    O21     23.746684   17.130303   21.487434 O.3        1 MOL1        -0.3740
      88    C26     25.591475   18.516270   22.232816 C.3        1 MOL1         0.1003
      89    H42     26.549724   18.932098   21.894293 H          1 MOL1         0.0783
      90    O22     25.797054   17.754602   23.435997 O.3        1 MOL1        -0.5519
      91    H43     26.569348   17.168609   23.286427 H          1 MOL1         0.3769
      92    C27     24.632885   19.697966   22.519573 C.3        1 MOL1         0.1053
      93    H44     23.706233   19.280254   22.932608 H          1 MOL1         0.0783
      94    O23     25.244443   20.557084   23.488349 O.3        1 MOL1        -0.5519
      95    H45     25.630520   19.943697   24.154434 H          1 MOL1         0.3769
      96    C28     24.275824   20.477214   21.220798 C.3        1 MOL1         0.1018
      97    H46     25.134442   21.085273   20.906360 H          1 MOL1         0.0783
      98    C29     23.880910   19.524892   20.059756 C.3        1 MOL1         0.1043
      99    H47     22.894802   19.095984   20.281389 H          1 MOL1         0.0783
     100    O24     24.858948   18.464478   19.928323 O.3        1 MOL1        -0.3740
     101    C30     23.786947   20.244312   18.695677 C.3        1 MOL1         0.0138
     102    H48     23.035831   21.042286   18.760927 H          1 MOL1         0.0794
     103    H49     23.439492   19.525758   17.941419 H          1 MOL1         0.0794
     104    O25     25.052889   20.789763   18.313126 O.3        1 MOL1        -0.5486
     105    H50     25.693460   20.045095   18.355487 H          1 MOL1         0.3769
     106    C31     21.437837   13.761370   21.774899 C.3        1 MOL1         0.2972
     107    H51     20.994742   12.761008   21.860584 H          1 MOL1         0.0751
     108    O26     20.441575   14.768719   21.497011 O.3        1 MOL1        -0.3740
     109    C32     22.175652   14.129739   23.084768 C.3        1 MOL1         0.1003
     110    H52     22.993912   13.410222   23.218944 H          1 MOL1         0.0783
     111    O27     21.296187   14.064330   24.215462 O.3        1 MOL1        -0.5519
     112    H53     21.806405   14.474360   24.949744 H          1 MOL1         0.3769
     113    C33     22.790819   15.541198   22.976980 C.3        1 MOL1         0.1053
     114    H54     21.962119   16.254356   22.927625 H          1 MOL1         0.0783
     115    O28     23.596211   15.811986   24.130499 O.3        1 MOL1        -0.5519
     116    H55     24.130620   16.617067   23.925002 H          1 MOL1         0.3769
     117    C34     23.642232   15.709020   21.694530 C.3        1 MOL1         0.1018
     118    H56     24.621804   15.243296   21.866111 H          1 MOL1         0.0783
     119    C35     22.976045   15.104936   20.423666 C.3        1 MOL1         0.1043
     120    H57     22.176315   15.784949   20.102235 H          1 MOL1         0.0783
     121    O29     22.413440   13.799121   20.712193 O.3        1 MOL1        -0.3740
     122    C36     23.951704   14.944058   19.236624 C.3        1 MOL1         0.0138
     123    H58     24.295037   15.936430   18.916163 H          1 MOL1         0.0794
     124    H59     23.409572   14.499072   18.391481 H          1 MOL1         0.0794
     125    O30     25.070114   14.127050   19.594471 O.3        1 MOL1        -0.5486
     126    H60     24.699586   13.263913   19.884880 H          1 MOL1         0.3769
     127    N1      20.255731   20.404221   25.232103 N.4        1 MOL1        -0.5937
     128    H1      20.767001   21.186634   24.781773 H          1 MOL1         0.3684
     129    H2      20.924256   19.930913   25.843262 H          1 MOL1         0.3684
     130    H3      19.534117   20.831924   25.817093 H          1 MOL1         0.3684
     131    C1      19.664940   19.471823   24.210631 C.3        1 MOL1         0.1270
     132    H4      18.973674   20.073281   23.612891 H          1 MOL1         0.0960
     133    C2      18.873401   18.352857   24.909801 C.3        1 MOL1        -0.2382
     134    H5      19.522453   17.756790   25.563016 H          1 MOL1         0.1009
     135    H6      18.413078   17.672857   24.185929 H          1 MOL1         0.1009
     136    H7      18.066436   18.773709   25.521951 H          1 MOL1         0.1009
     137    C3      20.749560   18.891491   23.273499 C.3        1 MOL1        -0.1392
     138    H8      21.450066   19.684072   22.991341 H          1 MOL1         0.0998
     139    H9      21.345057   18.157692   23.829950 H          1 MOL1         0.0998
     140    C4      20.198974   18.252958   21.972767 C.3        1 MOL1        -0.1302
     141    H10     19.514000   17.429800   22.210576 H          1 MOL1         0.0998
     142    H11     21.031423   17.801516   21.416488 H          1 MOL1         0.0998
     143    C5      19.490327   19.273929   21.054759 C.3        1 MOL1        -0.2317
     144    H12     20.175246   20.078924   20.757569 H          1 MOL1         0.1009
     145    H13     19.130062   18.784707   20.140546 H          1 MOL1         0.1009
     146    H14     18.624430   19.729054   21.549470 H          1 MOL1         0.1009
@<TRIPOS>BOND
    1     1     2    1
    2     1     3    1
    3     1     4    1
    4     4     5    1
    5     4     6    1
    6     6     7    1
    7     4     8    1
    8     8     9    1
    9     8    10    1
   10    10    11    1
   11     8    12    1
   12    12    13    1
   13    12    14    1
   14    14    15    1
   15     1    16    1
   16    14    16    1
   17    14    17    1
   18    17    18    1
   19    17    19    1
   20    17    20    1
   21    20    21    1
   22    22    23    1
   23    22    24    1
   24    22    25    1
   25    25    26    1
   26    25    27    1
   27    27    28    1
   28    25    29    1
   29    29    30    1
   30    29    31    1
   31    31    32    1
   32     3    33    1
   33    29    33    1
   34    33    34    1
   35    33    35    1
   36    35    36    1
   37    22    37    1
   38    35    37    1
   39    35    38    1
   40    38    39    1
   41    38    40    1
   42    38    41    1
   43    41    42    1
   44    43    44    1
   45    43    45    1
   46    43    46    1
   47    46    47    1
   48    46    48    1
   49    48    49    1
   50    46    50    1
   51    50    51    1
   52    50    52    1
   53    52    53    1
   54    24    54    1
   55    50    54    1
   56    54    55    1
   57    54    56    1
   58    56    57    1
   59    43    58    1
   60    56    58    1
   61    56    59    1
   62    59    60    1
   63    59    61    1
   64    59    62    1
   65    62    63    1
   66    64    65    1
   67    64    66    1
   68    64    67    1
   69    67    68    1
   70    67    69    1
   71    69    70    1
   72    67    71    1
   73    71    72    1
   74    71    73    1
   75    73    74    1
   76    45    75    1
   77    71    75    1
   78    75    76    1
   79    75    77    1
   80    77    78    1
   81    64    79    1
   82    77    79    1
   83    77    80    1
   84    80    81    1
   85    80    82    1
   86    80    83    1
   87    83    84    1
   88    85    86    1
   89    85    87    1
   90    85    88    1
   91    88    89    1
   92    88    90    1
   93    90    91    1
   94    88    92    1
   95    92    93    1
   96    92    94    1
   97    94    95    1
   98    66    96    1
   99    92    96    1
  100    96    97    1
  101    96    98    1
  102    98    99    1
  103    85   100    1
  104    98   100    1
  105    98   101    1
  106   101   102    1
  107   101   103    1
  108   101   104    1
  109   104   105    1
  110   106   107    1
  111    12   108    1
  112   106   108    1
  113   106   109    1
  114   109   110    1
  115   109   111    1
  116   111   112    1
  117   109   113    1
  118   113   114    1
  119   113   115    1
  120   115   116    1
  121    87   117    1
  122   113   117    1
  123   117   118    1
  124   117   119    1
  125   119   120    1
  126   106   121    1
  127   119   121    1
  128   119   122    1
  129   122   123    1
  130   122   124    1
  131   122   125    1
  132   125   126    1
  133   127   128    1
  134   127   129    1
  135   127   130    1
  136   127   131    1
  137   131   132    1
  138   131   133    1
  139   133   134    1
  140   133   135    1
  141   133   136    1
  142   131   137    1
  143   137   138    1
  144   137   139    1
  145   137   140    1
  146   140   141    1
  147   140   142    1
  148   140   143    1
  149   143   144    1
  150   143   145    1
  151   143   146    1
@<TRIPOS>SUBSTRUCTURE
       1 MOL1            1 RESIDUE      1      MOL     
       2 MOL1          146 RESIDUE      1      MOL     
@<SCITEGIC>MOL_PROPERTY
VM2 Rank
SciTegic.value.IntegerValue
4

@<SCITEGIC>MOL_PROPERTY
Conf_Id
SciTegic.value.IntegerValue
25302

@<SCITEGIC>MOL_PROPERTY
Probability
SciTegic.value.DoubleValue
1.46

@<SCITEGIC>MOL_PROPERTY
Sum Probability
SciTegic.value.DoubleValue
5.92

@<SCITEGIC>MOL_PROPERTY
Delta G
SciTegic.value.DoubleValue
0.029

@<SCITEGIC>MOL_PROPERTY
G
SciTegic.value.DoubleValue
525.219

@<SCITEGIC>MOL_PROPERTY
E
SciTegic.value.DoubleValue
332.481

@<SCITEGIC>MOL_PROPERTY
-TS
SciTegic.value.DoubleValue
192.738

@<SCITEGIC>MOL_PROPERTY
U+W
SciTegic.value.DoubleValue
203.710

@<SCITEGIC>MOL_PROPERTY
U
SciTegic.value.DoubleValue
278.525

@<SCITEGIC>MOL_PROPERTY
W
SciTegic.value.DoubleValue
-74.815

@<SCITEGIC>MOL_PROPERTY
W(PB)
SciTegic.value.DoubleValue
-80.957

@<SCITEGIC>MOL_PROPERTY
W(SA)
SciTegic.value.DoubleValue
6.143

@<SCITEGIC>MOL_PROPERTY
Valence
SciTegic.value.DoubleValue
144.896

@<SCITEGIC>MOL_PROPERTY
Coulomb
SciTegic.value.DoubleValue
156.059

@<SCITEGIC>MOL_PROPERTY
VdW
SciTegic.value.DoubleValue
-22.429

@<SCITEGIC>MOL_PROPERTY
VdW6
SciTegic.value.DoubleValue
-172.396

@<SCITEGIC>MOL_PROPERTY
VdW12
SciTegic.value.DoubleValue
149.967

@<SCITEGIC>MOL_PROPERTY
Bond
SciTegic.value.DoubleValue
4.296

@<SCITEGIC>MOL_PROPERTY
Angle
SciTegic.value.DoubleValue
10.416

@<SCITEGIC>MOL_PROPERTY
Pdih
SciTegic.value.DoubleValue
130.184

@<SCITEGIC>MOL_PROPERTY
Idih
SciTegic.value.DoubleValue
0.000

@<SCITEGIC>MOL_PROPERTY
Tether
SciTegic.value.DoubleValue
0.000

@<TRIPOS>MOLECULE
CD_guest-s10_vm2_rndm.mol2 : vm2 host+ligand conformer 5
         146         151           2
SMALL
USER_CHARGES
 
@<TRIPOS>ATOM
       1    C1      16.337065   15.269570   21.769484 C.3        1 MOL1         0.2972
       2    H1      15.246120   15.159879   21.817875 H          1 MOL1         0.0751
       3    O1      16.718556   16.612027   21.401299 O.3        1 MOL1        -0.3740
       4    C2      16.959694   14.920511   23.143067 C.3        1 MOL1         0.1003
       5    H2      16.698976   13.877091   23.363427 H          1 MOL1         0.0783
       6    O2      16.436470   15.763064   24.179091 O.3        1 MOL1        -0.5519
       7    H3      16.993054   15.563474   24.964529 H          1 MOL1         0.3769
       8    C3      18.501164   15.022591   23.096554 C.3        1 MOL1         0.1053
       9    H4      18.771120   16.075912   22.966418 H          1 MOL1         0.0783
      10    O3      19.047522   14.532770   24.326250 O.3        1 MOL1        -0.5519
      11    H5      20.016617   14.400034   24.179223 H          1 MOL1         0.3769
      12    C4      19.091143   14.229162   21.904931 C.3        1 MOL1         0.1018
      13    H6      19.077200   13.160363   22.156771 H          1 MOL1         0.0783
      14    C5      18.321523   14.469687   20.576036 C.3        1 MOL1         0.1043
      15    H7      18.566868   15.477471   20.216881 H          1 MOL1         0.0783
      16    O4      16.891764   14.363438   20.793165 O.3        1 MOL1        -0.3740
      17    C6      18.701010   13.467803   19.463016 C.3        1 MOL1         0.0138
      18    H8      19.763828   13.589200   19.216081 H          1 MOL1         0.0794
      19    H9      18.126042   13.709400   18.559079 H          1 MOL1         0.0794
      20    O5      18.440370   12.121824   19.871773 O.3        1 MOL1        -0.5486
      21    H10     17.487639   12.087551   20.112122 H          1 MOL1         0.3769
      22    C7      14.923628   20.248076   20.410892 C.3        1 MOL1         0.2972
      23    H11     14.261045   21.021000   20.000941 H          1 MOL1         0.0751
      24    O6      16.119048   20.815589   20.983284 O.3        1 MOL1        -0.3740
      25    C8      14.195359   19.434337   21.512615 C.3        1 MOL1         0.1003
      26    H12     13.304800   18.983083   21.056147 H          1 MOL1         0.0783
      27    O7      13.795816   20.276552   22.603090 O.3        1 MOL1        -0.5519
      28    H13     13.471132   19.653759   23.291849 H          1 MOL1         0.3769
      29    C9      15.095384   18.292045   22.040961 C.3        1 MOL1         0.1053
      30    H14     15.940020   18.755196   22.565582 H          1 MOL1         0.0783
      31    O8      14.351685   17.473831   22.951963 O.3        1 MOL1        -0.5519
      32    H15     15.012656   16.906359   23.421512 H          1 MOL1         0.3769
      33    C10     15.659467   17.436244   20.875332 C.3        1 MOL1         0.1018
      34    H16     14.855377   16.830786   20.435558 H          1 MOL1         0.0783
      35    C11     16.277560   18.316074   19.760076 C.3        1 MOL1         0.1043
      36    H17     17.194378   18.779351   20.142379 H          1 MOL1         0.0783
      37    O9      15.319771   19.329724   19.370414 O.3        1 MOL1        -0.3740
      38    C12     16.629693   17.501791   18.498571 C.3        1 MOL1         0.0138
      39    H18     15.707847   17.104838   18.052701 H          1 MOL1         0.0794
      40    H19     17.257921   16.647572   18.779598 H          1 MOL1         0.0794
      41    O10     17.325484   18.329183   17.564724 O.3        1 MOL1        -0.5486
      42    H20     16.744186   19.103713   17.401029 H          1 MOL1         0.3769
      43    C13     18.363764   24.243752   21.269916 C.3        1 MOL1         0.2972
      44    H21     18.793531   25.253816   21.269167 H          1 MOL1         0.0751
      45    O11     19.377010   23.232361   21.452532 O.3        1 MOL1        -0.3740
      46    C14     17.287967   24.092394   22.375811 C.3        1 MOL1         0.1003
      47    H22     16.473846   24.789434   22.137604 H          1 MOL1         0.0783
      48    O12     17.804518   24.404521   23.674467 O.3        1 MOL1        -0.5519
      49    H23     17.076043   24.172457   24.294202 H          1 MOL1         0.3769
      50    C15     16.705037   22.660252   22.369405 C.3        1 MOL1         0.1053
      51    H24     17.498102   21.963727   22.673794 H          1 MOL1         0.0783
      52    O13     15.610650   22.581211   23.290651 O.3        1 MOL1        -0.5519
      53    H25     15.137057   21.734527   23.097845 H          1 MOL1         0.3769
      54    C16     16.217387   22.251926   20.957635 C.3        1 MOL1         0.1018
      55    H26     15.243891   22.728509   20.781009 H          1 MOL1         0.0783
      56    C17     17.208504   22.637918   19.820470 C.3        1 MOL1         0.1043
      57    H27     18.051631   21.936582   19.839026 H          1 MOL1         0.0783
      58    O14     17.702633   23.987325   20.012808 O.3        1 MOL1        -0.3740
      59    C18     16.578156   22.567775   18.411874 C.3        1 MOL1         0.0138
      60    H28     16.285993   21.531439   18.199753 H          1 MOL1         0.0794
      61    H29     17.337754   22.850475   17.670808 H          1 MOL1         0.0794
      62    O15     15.441699   23.430831   18.311237 O.3        1 MOL1        -0.5486
      63    H30     15.760568   24.332585   18.538666 H          1 MOL1         0.3769
      64    C19     23.362607   22.557806   22.209223 C.3        1 MOL1         0.2972
      65    H31     24.423985   22.615271   22.479339 H          1 MOL1         0.0751
      66    O16     23.061525   21.344564   21.487747 O.3        1 MOL1        -0.3740
      67    C20     22.481285   22.596513   23.483712 C.3        1 MOL1         0.1003
      68    H32     22.716712   23.526127   24.017549 H          1 MOL1         0.0783
      69    O17     22.774463   21.469841   24.331540 O.3        1 MOL1        -0.5519
      70    H33     23.719384   21.233123   24.172347 H          1 MOL1         0.3769
      71    C21     20.977114   22.617087   23.113241 C.3        1 MOL1         0.1053
      72    H34     20.730284   21.633147   22.702750 H          1 MOL1         0.0783
      73    O18     20.189025   22.870765   24.282219 O.3        1 MOL1        -0.5519
      74    H35     19.343370   23.279094   23.977750 H          1 MOL1         0.3769
      75    C22     20.630748   23.659913   22.022066 C.3        1 MOL1         0.1018
      76    H36     20.557609   24.651520   22.488860 H          1 MOL1         0.0783
      77    C23     21.659992   23.685795   20.858792 C.3        1 MOL1         0.1043
      78    H37     21.506928   22.790057   20.242905 H          1 MOL1         0.0783
      79    O19     23.008847   23.686381   21.382614 O.3        1 MOL1        -0.3740
      80    C24     21.508693   24.916348   19.936940 C.3        1 MOL1         0.0138
      81    H38     20.528127   24.876248   19.444134 H          1 MOL1         0.0794
      82    H39     22.272243   24.863817   19.149326 H          1 MOL1         0.0794
      83    O20     21.639794   26.134821   20.674903 O.3        1 MOL1        -0.5486
      84    H40     22.518321   26.097065   21.114788 H          1 MOL1         0.3769
      85    C25     24.951996   17.709428   20.714122 C.3        1 MOL1         0.2972
      86    H41     25.626147   16.918382   20.361645 H          1 MOL1         0.0751
      87    O21     23.716181   17.171863   21.227767 O.3        1 MOL1        -0.3740
      88    C26     25.620540   18.546080   21.836115 C.3        1 MOL1         0.1003
      89    H42     26.523801   19.003826   21.411396 H          1 MOL1         0.0783
      90    O22     25.985753   17.726747   22.960419 O.3        1 MOL1        -0.5519
      91    H43     26.750707   17.176060   22.687968 H          1 MOL1         0.3769
      92    C27     24.680241   19.687131   22.295930 C.3        1 MOL1         0.1053
      93    H44     23.805998   19.227839   22.774460 H          1 MOL1         0.0783
      94    O23     25.379657   20.493419   23.250326 O.3        1 MOL1        -0.5519
      95    H45     25.846870   19.845336   23.825631 H          1 MOL1         0.3769
      96    C28     24.185239   20.533570   21.085692 C.3        1 MOL1         0.1018
      97    H46     25.006691   21.157432   20.709014 H          1 MOL1         0.0783
      98    C29     23.665702   19.637700   19.929830 C.3        1 MOL1         0.1043
      99    H47     22.715679   19.181140   20.234577 H          1 MOL1         0.0783
     100    O24     24.642326   18.611127   19.631765 O.3        1 MOL1        -0.3740
     101    C30     23.423177   20.440562   18.635234 C.3        1 MOL1         0.0138
     102    H48     24.377747   20.847508   18.275615 H          1 MOL1         0.0794
     103    H49     22.759326   21.287557   18.852081 H          1 MOL1         0.0794
     104    O25     22.829375   19.599568   17.644726 O.3        1 MOL1        -0.5486
     105    H50     23.423399   18.822046   17.556749 H          1 MOL1         0.3769
     106    C31     21.472746   13.737139   21.601933 C.3        1 MOL1         0.2972
     107    H51     21.073413   12.715542   21.636322 H          1 MOL1         0.0751
     108    O26     20.429521   14.728088   21.716044 O.3        1 MOL1        -0.3740
     109    C32     22.486931   13.965240   22.750155 C.3        1 MOL1         0.1003
     110    H52     23.311910   13.254878   22.608630 H          1 MOL1         0.0783
     111    O27     21.885832   13.745123   24.033111 O.3        1 MOL1        -0.5519
     112    H53     22.566050   14.041345   24.679304 H          1 MOL1         0.3769
     113    C33     23.068971   15.395874   22.686983 C.3        1 MOL1         0.1053
     114    H54     22.260199   16.099008   22.917094 H          1 MOL1         0.0783
     115    O28     24.116816   15.529426   23.654435 O.3        1 MOL1        -0.5519
     116    H55     24.544619   16.405653   23.494043 H          1 MOL1         0.3769
     117    C34     23.611967   15.735930   21.277134 C.3        1 MOL1         0.1018
     118    H56     24.586723   15.245371   21.155190 H          1 MOL1         0.0783
     119    C35     22.654546   15.301502   20.130946 C.3        1 MOL1         0.1043
     120    H57     21.801958   15.991320   20.106996 H          1 MOL1         0.0783
     121    O29     22.175467   13.953995   20.359740 O.3        1 MOL1        -0.3740
     122    C36     23.319813   15.333652   18.737147 C.3        1 MOL1         0.0138
     123    H58     23.603130   16.366965   18.498557 H          1 MOL1         0.0794
     124    H59     22.583836   15.015297   17.986784 H          1 MOL1         0.0794
     125    O30     24.470608   14.484842   18.695057 O.3        1 MOL1        -0.5486
     126    H60     24.158810   13.586989   18.946513 H          1 MOL1         0.3769
     127    N1      20.349761   20.001047   25.124349 N.4        1 MOL1        -0.5937
     128    H1      21.113522   20.644248   24.846679 H          1 MOL1         0.3684
     129    H2      20.758855   19.262753   25.700269 H          1 MOL1         0.3684
     130    H3      19.722205   20.557551   25.710738 H          1 MOL1         0.3684
     131    C1      19.633386   19.457503   23.918508 C.3        1 MOL1         0.1270
     132    H4      19.234683   20.325922   23.386297 H          1 MOL1         0.0960
     133    C2      18.455400   18.568345   24.347670 C.3        1 MOL1        -0.2382
     134    H5      18.802276   17.689987   24.906175 H          1 MOL1         0.1009
     135    H6      17.889708   18.215632   23.479974 H          1 MOL1         0.1009
     136    H7      17.760570   19.126264   24.987108 H          1 MOL1         0.1009
     137    C3      20.606282   18.711594   22.976671 C.3        1 MOL1        -0.1392
     138    H8      21.527121   19.299739   22.879513 H          1 MOL1         0.0998
     139    H9      20.897720   17.763367   23.443884 H          1 MOL1         0.0998
     140    C4      20.059125   18.440331   21.552503 C.3        1 MOL1        -0.1302
     141    H10     19.163238   17.809728   21.593946 H          1 MOL1         0.0998
     142    H11     20.807751   17.863686   20.994206 H          1 MOL1         0.0998
     143    C5      19.742144   19.733665   20.770309 C.3        1 MOL1        -0.2317
     144    H12     18.933973   20.300089   21.248517 H          1 MOL1         0.1009
     145    H13     20.622745   20.383610   20.700693 H          1 MOL1         0.1009
     146    H14     19.425896   19.497134   19.745716 H          1 MOL1         0.1009
@<TRIPOS>BOND
    1     1     2    1
    2     1     3    1
    3     1     4    1
    4     4     5    1
    5     4     6    1
    6     6     7    1
    7     4     8    1
    8     8     9    1
    9     8    10    1
   10    10    11    1
   11     8    12    1
   12    12    13    1
   13    12    14    1
   14    14    15    1
   15     1    16    1
   16    14    16    1
   17    14    17    1
   18    17    18    1
   19    17    19    1
   20    17    20    1
   21    20    21    1
   22    22    23    1
   23    22    24    1
   24    22    25    1
   25    25    26    1
   26    25    27    1
   27    27    28    1
   28    25    29    1
   29    29    30    1
   30    29    31    1
   31    31    32    1
   32     3    33    1
   33    29    33    1
   34    33    34    1
   35    33    35    1
   36    35    36    1
   37    22    37    1
   38    35    37    1
   39    35    38    1
   40    38    39    1
   41    38    40    1
   42    38    41    1
   43    41    42    1
   44    43    44    1
   45    43    45    1
   46    43    46    1
   47    46    47    1
   48    46    48    1
   49    48    49    1
   50    46    50    1
   51    50    51    1
   52    50    52    1
   53    52    53    1
   54    24    54    1
   55    50    54    1
   56    54    55    1
   57    54    56    1
   58    56    57    1
   59    43    58    1
   60    56    58    1
   61    56    59    1
   62    59    60    1
   63    59    61    1
   64    59    62    1
   65    62    63    1
   66    64    65    1
   67    64    66    1
   68    64    67    1
   69    67    68    1
   70    67    69    1
   71    69    70    1
   72    67    71    1
   73    71    72    1
   74    71    73    1
   75    73    74    1
   76    45    75    1
   77    71    75    1
   78    75    76    1
   79    75    77    1
   80    77    78    1
   81    64    79    1
   82    77    79    1
   83    77    80    1
   84    80    81    1
   85    80    82    1
   86    80    83    1
   87    83    84    1
   88    85    86    1
   89    85    87    1
   90    85    88    1
   91    88    89    1
   92    88    90    1
   93    90    91    1
   94    88    92    1
   95    92    93    1
   96    92    94    1
   97    94    95    1
   98    66    96    1
   99    92    96    1
  100    96    97    1
  101    96    98    1
  102    98    99    1
  103    85   100    1
  104    98   100    1
  105    98   101    1
  106   101   102    1
  107   101   103    1
  108   101   104    1
  109   104   105    1
  110   106   107    1
  111    12   108    1
  112   106   108    1
  113   106   109    1
  114   109   110    1
  115   109   111    1
  116   111   112    1
  117   109   113    1
  118   113   114    1
  119   113   115    1
  120   115   116    1
  121    87   117    1
  122   113   117    1
  123   117   118    1
  124   117   119    1
  125   119   120    1
  126   106   121    1
  127   119   121    1
  128   119   122    1
  129   122   123    1
  130   122   124    1
  131   122   125    1
  132   125   126    1
  133   127   128    1
  134   127   129    1
  135   127   130    1
  136   127   131    1
  137   131   132    1
  138   131   133    1
  139   133   134    1
  140   133   135    1
  141   133   136    1
  142   131   137    1
  143   137   138    1
  144   137   139    1
  145   137   140    1
  146   140   141    1
  147   140   142    1
  148   140   143    1
  149   143   144    1
  150   143   145    1
  151   143   146    1
@<TRIPOS>SUBSTRUCTURE
       1 MOL1            1 RESIDUE      1      MOL     
       2 MOL1          146 RESIDUE      1      MOL     
@<SCITEGIC>MOL_PROPERTY
VM2 Rank
SciTegic.value.IntegerValue
5

@<SCITEGIC>MOL_PROPERTY
Conf_Id
SciTegic.value.IntegerValue
11807

@<SCITEGIC>MOL_PROPERTY
Probability
SciTegic.value.DoubleValue
1.26

@<SCITEGIC>MOL_PROPERTY
Sum Probability
SciTegic.value.DoubleValue
7.18

@<SCITEGIC>MOL_PROPERTY
Delta G
SciTegic.value.DoubleValue
0.115

@<SCITEGIC>MOL_PROPERTY
G
SciTegic.value.DoubleValue
525.305

@<SCITEGIC>MOL_PROPERTY
E
SciTegic.value.DoubleValue
331.852

@<SCITEGIC>MOL_PROPERTY
-TS
SciTegic.value.DoubleValue
193.453

@<SCITEGIC>MOL_PROPERTY
U+W
SciTegic.value.DoubleValue
203.081

@<SCITEGIC>MOL_PROPERTY
U
SciTegic.value.DoubleValue
277.782

@<SCITEGIC>MOL_PROPERTY
W
SciTegic.value.DoubleValue
-74.688

@<SCITEGIC>MOL_PROPERTY
W(PB)
SciTegic.value.DoubleValue
-80.766

@<SCITEGIC>MOL_PROPERTY
W(SA)
SciTegic.value.DoubleValue
6.078

@<SCITEGIC>MOL_PROPERTY
Valence
SciTegic.value.DoubleValue
145.499

@<SCITEGIC>MOL_PROPERTY
Coulomb
SciTegic.value.DoubleValue
156.613

@<SCITEGIC>MOL_PROPERTY
VdW
SciTegic.value.DoubleValue
-24.329

@<SCITEGIC>MOL_PROPERTY
VdW6
SciTegic.value.DoubleValue
-173.676

@<SCITEGIC>MOL_PROPERTY
VdW12
SciTegic.value.DoubleValue
149.347

@<SCITEGIC>MOL_PROPERTY
Bond
SciTegic.value.DoubleValue
4.233

@<SCITEGIC>MOL_PROPERTY
Angle
SciTegic.value.DoubleValue
10.281

@<SCITEGIC>MOL_PROPERTY
Pdih
SciTegic.value.DoubleValue
130.984

@<SCITEGIC>MOL_PROPERTY
Idih
SciTegic.value.DoubleValue
0.000

@<SCITEGIC>MOL_PROPERTY
Tether
SciTegic.value.DoubleValue
0.000

@<TRIPOS>MOLECULE
CD_guest-s10_vm2_rndm.mol2 : vm2 host+ligand conformer 6
         146         151           2
SMALL
USER_CHARGES
 
@<TRIPOS>ATOM
       1    C1      16.368210   15.309354   20.744145 C.3        1 MOL1         0.2972
       2    H1      15.320103   15.181812   20.443804 H          1 MOL1         0.0751
       3    O1      16.637088   16.662814   21.163563 O.3        1 MOL1        -0.3740
       4    C2      16.731160   14.338401   21.898728 C.3        1 MOL1         0.1003
       5    H2      16.558281   13.317632   21.533501 H          1 MOL1         0.0783
       6    O2      15.918821   14.568445   23.057414 O.3        1 MOL1        -0.5519
       7    H3      16.293531   13.974119   23.746155 H          1 MOL1         0.3769
       8    C3      18.225068   14.460822   22.280388 C.3        1 MOL1         0.1053
       9    H4      18.379373   15.451685   22.727832 H          1 MOL1         0.0783
      10    O3      18.557721   13.443899   23.232840 O.3        1 MOL1        -0.5519
      11    H5      19.466573   13.653083   23.564001 H          1 MOL1         0.3769
      12    C4      19.138863   14.345296   21.032955 C.3        1 MOL1         0.1018
      13    H6      19.174992   13.299521   20.699580 H          1 MOL1         0.0783
      14    C5      18.649260   15.229023   19.854509 C.3        1 MOL1         0.1043
      15    H7      18.829378   16.282240   20.105463 H          1 MOL1         0.0783
      16    O4      17.234850   15.011997   19.630129 O.3        1 MOL1        -0.3740
      17    C6      19.382418   14.923512   18.529228 C.3        1 MOL1         0.0138
      18    H8      20.458485   15.091239   18.665178 H          1 MOL1         0.0794
      19    H9      19.033281   15.627836   17.762423 H          1 MOL1         0.0794
      20    O5      19.144847   13.576850   18.109216 O.3        1 MOL1        -0.5486
      21    H10     18.167955   13.468032   18.085649 H          1 MOL1         0.3769
      22    C7      14.799752   20.326399   21.663221 C.3        1 MOL1         0.2972
      23    H11     14.112762   21.167479   21.821435 H          1 MOL1         0.0751
      24    O6      16.116652   20.775815   21.285951 O.3        1 MOL1        -0.3740
      25    C8      14.902115   19.474324   22.952056 C.3        1 MOL1         0.1003
      26    H12     13.897532   19.086995   23.166731 H          1 MOL1         0.0783
      27    O7      15.351747   20.254356   24.068011 O.3        1 MOL1        -0.5519
      28    H13     15.530142   19.592182   24.772765 H          1 MOL1         0.3769
      29    C9      15.840385   18.265244   22.745323 C.3        1 MOL1         0.1053
      30    H14     16.864464   18.642659   22.631421 H          1 MOL1         0.0783
      31    O8      15.755714   17.407350   23.889293 O.3        1 MOL1        -0.5519
      32    H15     15.976835   16.495556   23.579448 H          1 MOL1         0.3769
      33    C10     15.479634   17.465632   21.469937 C.3        1 MOL1         0.1018
      34    H16     14.598644   16.846711   21.688136 H          1 MOL1         0.0783
      35    C11     15.198343   18.375912   20.239082 C.3        1 MOL1         0.1043
      36    H17     16.155632   18.781979   19.886051 H          1 MOL1         0.0783
      37    O9      14.314893   19.464402   20.612075 O.3        1 MOL1        -0.3740
      38    C12     14.546337   17.629690   19.053578 C.3        1 MOL1         0.0138
      39    H18     15.251958   16.882259   18.667577 H          1 MOL1         0.0794
      40    H19     14.359422   18.348117   18.244195 H          1 MOL1         0.0794
      41    O10     13.324997   16.998121   19.448253 O.3        1 MOL1        -0.5486
      42    H20     12.746196   17.711516   19.798422 H          1 MOL1         0.3769
      43    C13     18.407814   24.159895   20.752203 C.3        1 MOL1         0.2972
      44    H21     18.837706   25.139055   20.504885 H          1 MOL1         0.0751
      45    O11     19.430007   23.202755   21.099789 O.3        1 MOL1        -0.3740
      46    C14     17.378524   24.270769   21.907678 C.3        1 MOL1         0.1003
      47    H22     16.555828   24.903968   21.550397 H          1 MOL1         0.0783
      48    O12     17.944498   24.864356   23.082158 O.3        1 MOL1        -0.5519
      49    H23     17.231201   24.810150   23.758120 H          1 MOL1         0.3769
      50    C15     16.793357   22.879530   22.245869 C.3        1 MOL1         0.1053
      51    H24     17.601516   22.259819   22.658343 H          1 MOL1         0.0783
      52    O13     15.752742   23.023977   23.219018 O.3        1 MOL1        -0.5519
      53    H25     15.580553   22.117299   23.576463 H          1 MOL1         0.3769
      54    C16     16.246417   22.175391   20.975273 C.3        1 MOL1         0.1018
      55    H26     15.284006   22.622096   20.691403 H          1 MOL1         0.0783
      56    C17     17.210386   22.268996   19.761747 C.3        1 MOL1         0.1043
      57    H27     18.051587   21.582569   19.921169 H          1 MOL1         0.0783
      58    O14     17.691454   23.629676   19.616896 O.3        1 MOL1        -0.3740
      59    C18     16.511762   21.874958   18.444101 C.3        1 MOL1         0.0138
      60    H28     15.723038   22.605328   18.218991 H          1 MOL1         0.0794
      61    H29     16.033325   20.894160   18.566454 H          1 MOL1         0.0794
      62    O15     17.465927   21.822165   17.382197 O.3        1 MOL1        -0.5486
      63    H30     17.944465   22.680989   17.402158 H          1 MOL1         0.3769
      64    C19     23.362339   22.667446   22.149676 C.3        1 MOL1         0.2972
      65    H31     24.405730   22.754757   22.477540 H          1 MOL1         0.0751
      66    O16     23.108056   21.394288   21.518836 O.3        1 MOL1        -0.3740
      67    C20     22.405692   22.819494   23.359146 C.3        1 MOL1         0.1003
      68    H32     22.592626   23.806591   23.801144 H          1 MOL1         0.0783
      69    O17     22.666505   21.802967   24.342758 O.3        1 MOL1        -0.5519
      70    H33     23.604808   21.520784   24.223090 H          1 MOL1         0.3769
      71    C21     20.926719   22.768244   22.900321 C.3        1 MOL1         0.1053
      72    H34     20.715041   21.749344   22.559832 H          1 MOL1         0.0783
      73    O18     20.065309   23.094642   23.996836 O.3        1 MOL1        -0.5519
      74    H35     19.294667   23.582302   23.620111 H          1 MOL1         0.3769
      75    C22     20.636270   23.708504   21.703677 C.3        1 MOL1         0.1018
      76    H36     20.517521   24.736113   22.073017 H          1 MOL1         0.0783
      77    C23     21.736789   23.651216   20.606925 C.3        1 MOL1         0.1043
      78    H37     21.629496   22.703498   20.062954 H          1 MOL1         0.0783
      79    O19     23.052690   23.715254   21.207382 O.3        1 MOL1        -0.3740
      80    C24     21.632310   24.793837   19.572418 C.3        1 MOL1         0.0138
      81    H38     20.689162   24.691119   19.019647 H          1 MOL1         0.0794
      82    H39     22.449041   24.688101   18.845831 H          1 MOL1         0.0794
      83    O20     21.695109   26.074408   20.206662 O.3        1 MOL1        -0.5486
      84    H40     22.542929   26.094483   20.704144 H          1 MOL1         0.3769
      85    C25     25.030934   17.722475   21.093835 C.3        1 MOL1         0.2972
      86    H41     25.729054   16.912267   20.846641 H          1 MOL1         0.0751
      87    O21     23.742971   17.214228   21.490292 O.3        1 MOL1        -0.3740
      88    C26     25.581851   18.595913   22.251226 C.3        1 MOL1         0.1003
      89    H42     26.542280   19.013137   21.920738 H          1 MOL1         0.0783
      90    O22     25.781734   17.818550   23.445419 O.3        1 MOL1        -0.5519
      91    H43     26.548955   17.227887   23.288607 H          1 MOL1         0.3769
      92    C27     24.625698   19.776788   22.550745 C.3        1 MOL1         0.1053
      93    H44     23.702274   19.357223   22.968947 H          1 MOL1         0.0783
      94    O23     25.246954   20.629911   23.518432 O.3        1 MOL1        -0.5519
      95    H45     25.634209   20.012926   24.180520 H          1 MOL1         0.3769
      96    C28     24.258971   20.564139   21.258939 C.3        1 MOL1         0.1018
      97    H46     25.117939   21.167243   20.935773 H          1 MOL1         0.0783
      98    C29     23.848552   19.620016   20.098809 C.3        1 MOL1         0.1043
      99    H47     22.866363   19.184179   20.324625 H          1 MOL1         0.0783
     100    O24     24.844118   18.579138   19.948911 O.3        1 MOL1        -0.3740
     101    C30     23.749419   20.364599   18.751408 C.3        1 MOL1         0.0138
     102    H48     24.738556   20.756862   18.479560 H          1 MOL1         0.0794
     103    H49     23.068749   21.219325   18.857885 H          1 MOL1         0.0794
     104    O25     23.264561   19.479092   17.740277 O.3        1 MOL1        -0.5486
     105    H50     23.854016   18.693149   17.762913 H          1 MOL1         0.3769
     106    C31     21.444099   13.827258   21.668152 C.3        1 MOL1         0.2972
     107    H51     21.009912   12.820894   21.723475 H          1 MOL1         0.0751
     108    O26     20.439466   14.833066   21.412911 O.3        1 MOL1        -0.3740
     109    C32     22.172309   14.165422   22.991986 C.3        1 MOL1         0.1003
     110    H52     22.994496   13.447781   23.111328 H          1 MOL1         0.0783
     111    O27     21.288466   14.064964   24.116634 O.3        1 MOL1        -0.5519
     112    H53     21.792807   14.459013   24.863619 H          1 MOL1         0.3769
     113    C33     22.779296   15.582922   22.924729 C.3        1 MOL1         0.1053
     114    H54     21.946188   16.291839   22.887411 H          1 MOL1         0.0783
     115    O28     23.576327   15.830725   24.089305 O.3        1 MOL1        -0.5519
     116    H55     24.103818   16.645665   23.906710 H          1 MOL1         0.3769
     117    C34     23.638464   15.787707   21.653267 C.3        1 MOL1         0.1018
     118    H56     24.617413   15.318234   21.817945 H          1 MOL1         0.0783
     119    C35     22.979755   15.217864   20.363034 C.3        1 MOL1         0.1043
     120    H57     22.175697   15.900668   20.059202 H          1 MOL1         0.0783
     121    O29     22.426870   13.901097   20.614053 O.3        1 MOL1        -0.3740
     122    C36     23.958546   15.095721   19.173999 C.3        1 MOL1         0.0138
     123    H58     24.291988   16.098762   18.878107 H          1 MOL1         0.0794
     124    H59     23.421733   14.665524   18.317792 H          1 MOL1         0.0794
     125    O30     25.085082   14.281976   19.513176 O.3        1 MOL1        -0.5486
     126    H60     24.723095   13.407260   19.778634 H          1 MOL1         0.3769
     127    N1      20.270257   20.411562   25.264362 N.4        1 MOL1        -0.5937
     128    H1      20.946955   19.931679   25.861266 H          1 MOL1         0.3684
     129    H2      19.550269   20.822516   25.863217 H          1 MOL1         0.3684
     130    H3      20.772548   21.206365   24.825810 H          1 MOL1         0.3684
     131    C1      19.677980   19.493928   24.230257 C.3        1 MOL1         0.1270
     132    H4      18.977384   20.101078   23.649376 H          1 MOL1         0.0960
     133    C2      18.900416   18.356505   24.915109 C.3        1 MOL1        -0.2382
     134    H5      19.558964   17.754113   25.552837 H          1 MOL1         0.1009
     135    H6      18.440227   17.685721   24.182634 H          1 MOL1         0.1009
     136    H7      18.094766   18.759956   25.540515 H          1 MOL1         0.1009
     137    C3      20.758793   18.938528   23.273757 C.3        1 MOL1        -0.1392
     138    H8      21.452531   19.740890   23.002772 H          1 MOL1         0.0998
     139    H9      21.362531   18.196888   23.810550 H          1 MOL1         0.0998
     140    C4      20.202034   18.324153   21.963899 C.3        1 MOL1        -0.1302
     141    H10     19.515846   17.497976   22.188134 H          1 MOL1         0.0998
     142    H11     21.031662   17.881707   21.396346 H          1 MOL1         0.0998
     143    C5      19.493644   19.364884   21.068270 C.3        1 MOL1        -0.2317
     144    H12     19.121775   18.894911   20.148808 H          1 MOL1         0.1009
     145    H13     18.635789   19.819083   21.577416 H          1 MOL1         0.1009
     146    H14     20.182443   20.169224   20.777602 H          1 MOL1         0.1009
@<TRIPOS>BOND
    1     1     2    1
    2     1     3    1
    3     1     4    1
    4     4     5    1
    5     4     6    1
    6     6     7    1
    7     4     8    1
    8     8     9    1
    9     8    10    1
   10    10    11    1
   11     8    12    1
   12    12    13    1
   13    12    14    1
   14    14    15    1
   15     1    16    1
   16    14    16    1
   17    14    17    1
   18    17    18    1
   19    17    19    1
   20    17    20    1
   21    20    21    1
   22    22    23    1
   23    22    24    1
   24    22    25    1
   25    25    26    1
   26    25    27    1
   27    27    28    1
   28    25    29    1
   29    29    30    1
   30    29    31    1
   31    31    32    1
   32     3    33    1
   33    29    33    1
   34    33    34    1
   35    33    35    1
   36    35    36    1
   37    22    37    1
   38    35    37    1
   39    35    38    1
   40    38    39    1
   41    38    40    1
   42    38    41    1
   43    41    42    1
   44    43    44    1
   45    43    45    1
   46    43    46    1
   47    46    47    1
   48    46    48    1
   49    48    49    1
   50    46    50    1
   51    50    51    1
   52    50    52    1
   53    52    53    1
   54    24    54    1
   55    50    54    1
   56    54    55    1
   57    54    56    1
   58    56    57    1
   59    43    58    1
   60    56    58    1
   61    56    59    1
   62    59    60    1
   63    59    61    1
   64    59    62    1
   65    62    63    1
   66    64    65    1
   67    64    66    1
   68    64    67    1
   69    67    68    1
   70    67    69    1
   71    69    70    1
   72    67    71    1
   73    71    72    1
   74    71    73    1
   75    73    74    1
   76    45    75    1
   77    71    75    1
   78    75    76    1
   79    75    77    1
   80    77    78    1
   81    64    79    1
   82    77    79    1
   83    77    80    1
   84    80    81    1
   85    80    82    1
   86    80    83    1
   87    83    84    1
   88    85    86    1
   89    85    87    1
   90    85    88    1
   91    88    89    1
   92    88    90    1
   93    90    91    1
   94    88    92    1
   95    92    93    1
   96    92    94    1
   97    94    95    1
   98    66    96    1
   99    92    96    1
  100    96    97    1
  101    96    98    1
  102    98    99    1
  103    85   100    1
  104    98   100    1
  105    98   101    1
  106   101   102    1
  107   101   103    1
  108   101   104    1
  109   104   105    1
  110   106   107    1
  111    12   108    1
  112   106   108    1
  113   106   109    1
  114   109   110    1
  115   109   111    1
  116   111   112    1
  117   109   113    1
  118   113   114    1
  119   113   115    1
  120   115   116    1
  121    87   117    1
  122   113   117    1
  123   117   118    1
  124   117   119    1
  125   119   120    1
  126   106   121    1
  127   119   121    1
  128   119   122    1
  129   122   123    1
  130   122   124    1
  131   122   125    1
  132   125   126    1
  133   127   128    1
  134   127   129    1
  135   127   130    1
  136   127   131    1
  137   131   132    1
  138   131   133    1
  139   133   134    1
  140   133   135    1
  141   133   136    1
  142   131   137    1
  143   137   138    1
  144   137   139    1
  145   137   140    1
  146   140   141    1
  147   140   142    1
  148   140   143    1
  149   143   144    1
  150   143   145    1
  151   143   146    1
@<TRIPOS>SUBSTRUCTURE
       1 MOL1            1 RESIDUE      1      MOL     
       2 MOL1          146 RESIDUE      1      MOL     
@<SCITEGIC>MOL_PROPERTY
VM2 Rank
SciTegic.value.IntegerValue
6

@<SCITEGIC>MOL_PROPERTY
Conf_Id
SciTegic.value.IntegerValue
25348

@<SCITEGIC>MOL_PROPERTY
Probability
SciTegic.value.DoubleValue
1.20

@<SCITEGIC>MOL_PROPERTY
Sum Probability
SciTegic.value.DoubleValue
8.38

@<SCITEGIC>MOL_PROPERTY
Delta G
SciTegic.value.DoubleValue
0.143

@<SCITEGIC>MOL_PROPERTY
G
SciTegic.value.DoubleValue
525.332

@<SCITEGIC>MOL_PROPERTY
E
SciTegic.value.DoubleValue
332.916

@<SCITEGIC>MOL_PROPERTY
-TS
SciTegic.value.DoubleValue
192.416

@<SCITEGIC>MOL_PROPERTY
U+W
SciTegic.value.DoubleValue
204.145

@<SCITEGIC>MOL_PROPERTY
U
SciTegic.value.DoubleValue
278.472

@<SCITEGIC>MOL_PROPERTY
W
SciTegic.value.DoubleValue
-74.328

@<SCITEGIC>MOL_PROPERTY
W(PB)
SciTegic.value.DoubleValue
-80.503

@<SCITEGIC>MOL_PROPERTY
W(SA)
SciTegic.value.DoubleValue
6.175

@<SCITEGIC>MOL_PROPERTY
Valence
SciTegic.value.DoubleValue
145.020

@<SCITEGIC>MOL_PROPERTY
Coulomb
SciTegic.value.DoubleValue
156.153

@<SCITEGIC>MOL_PROPERTY
VdW
SciTegic.value.DoubleValue
-22.701

@<SCITEGIC>MOL_PROPERTY
VdW6
SciTegic.value.DoubleValue
-172.035

@<SCITEGIC>MOL_PROPERTY
VdW12
SciTegic.value.DoubleValue
149.335

@<SCITEGIC>MOL_PROPERTY
Bond
SciTegic.value.DoubleValue
4.260

@<SCITEGIC>MOL_PROPERTY
Angle
SciTegic.value.DoubleValue
10.374

@<SCITEGIC>MOL_PROPERTY
Pdih
SciTegic.value.DoubleValue
130.386

@<SCITEGIC>MOL_PROPERTY
Idih
SciTegic.value.DoubleValue
0.000

@<SCITEGIC>MOL_PROPERTY
Tether
SciTegic.value.DoubleValue
0.000

@<TRIPOS>MOLECULE
CD_guest-s10_vm2_rndm.mol2 : vm2 host+ligand conformer 7
         146         151           2
SMALL
USER_CHARGES
 
@<TRIPOS>ATOM
       1    C1      16.403057   15.296880   20.714422 C.3        1 MOL1         0.2972
       2    H1      15.357809   15.170829   20.403677 H          1 MOL1         0.0751
       3    O1      16.672829   16.653306   21.123921 O.3        1 MOL1        -0.3740
       4    C2      16.749528   14.334528   21.881313 C.3        1 MOL1         0.1003
       5    H2      16.577421   13.311300   21.522651 H          1 MOL1         0.0783
       6    O2      15.924969   14.576572   23.028816 O.3        1 MOL1        -0.5519
       7    H3      16.289460   13.986113   23.726326 H          1 MOL1         0.3769
       8    C3      18.239426   14.455252   22.278671 C.3        1 MOL1         0.1053
       9    H4      18.392253   15.449665   22.718657 H          1 MOL1         0.0783
      10    O3      18.558014   13.446105   23.244124 O.3        1 MOL1        -0.5519
      11    H5      19.463830   13.655371   23.583445 H          1 MOL1         0.3769
      12    C4      19.166539   14.324986   21.042619 C.3        1 MOL1         0.1018
      13    H6      19.203182   13.275972   20.719639 H          1 MOL1         0.0783
      14    C5      18.693300   15.199137   19.850446 C.3        1 MOL1         0.1043
      15    H7      18.875260   16.253978   20.093282 H          1 MOL1         0.0783
      16    O4      17.280487   14.985969   19.612645 O.3        1 MOL1        -0.3740
      17    C6      19.439475   14.877589   18.536251 C.3        1 MOL1         0.0138
      18    H8      20.514727   15.041959   18.682277 H          1 MOL1         0.0794
      19    H9      19.101808   15.575862   17.758868 H          1 MOL1         0.0794
      20    O5      19.200560   13.527943   18.126724 O.3        1 MOL1        -0.5486
      21    H10     18.223510   13.423068   18.093550 H          1 MOL1         0.3769
      22    C7      14.836944   20.323518   21.589969 C.3        1 MOL1         0.2972
      23    H11     14.147494   21.164256   21.739017 H          1 MOL1         0.0751
      24    O6      16.154170   20.773859   21.212263 O.3        1 MOL1        -0.3740
      25    C8      14.935407   19.480808   22.885764 C.3        1 MOL1         0.1003
      26    H12     13.929675   19.095949   23.099531 H          1 MOL1         0.0783
      27    O7      15.381441   20.266475   23.999068 O.3        1 MOL1        -0.5519
      28    H13     15.556157   19.607811   24.708045 H          1 MOL1         0.3769
      29    C9      15.872383   18.268613   22.691815 C.3        1 MOL1         0.1053
      30    H14     16.897708   18.643138   22.579782 H          1 MOL1         0.0783
      31    O8      15.780442   17.419672   23.841893 O.3        1 MOL1        -0.5519
      32    H15     15.995124   16.504071   23.538923 H          1 MOL1         0.3769
      33    C10     15.515429   17.459717   21.421247 C.3        1 MOL1         0.1018
      34    H16     14.633063   16.843318   21.641062 H          1 MOL1         0.0783
      35    C11     15.238625   18.361312   20.183305 C.3        1 MOL1         0.1043
      36    H17     16.196681   18.765801   19.831095 H          1 MOL1         0.0783
      37    O9      14.354054   19.451253   20.546459 O.3        1 MOL1        -0.3740
      38    C12     14.590250   17.607453   19.000615 C.3        1 MOL1         0.0138
      39    H18     15.297798   16.858911   18.620334 H          1 MOL1         0.0794
      40    H19     14.403840   18.321353   18.187062 H          1 MOL1         0.0794
      41    O10     13.368966   16.976198   19.395983 O.3        1 MOL1        -0.5486
      42    H20     12.787891   17.691142   19.739215 H          1 MOL1         0.3769
      43    C13     18.455907   24.153884   20.708874 C.3        1 MOL1         0.2972
      44    H21     18.894924   25.131396   20.471189 H          1 MOL1         0.0751
      45    O11     19.467996   23.190167   21.067561 O.3        1 MOL1        -0.3740
      46    C14     17.411852   24.267656   21.850485 C.3        1 MOL1         0.1003
      47    H22     16.595501   24.903182   21.482881 H          1 MOL1         0.0783
      48    O12     17.965548   24.859358   23.031825 O.3        1 MOL1        -0.5519
      49    H23     17.244661   24.804297   23.699678 H          1 MOL1         0.3769
      50    C15     16.818368   22.878550   22.182207 C.3        1 MOL1         0.1053
      51    H24     17.620768   22.255570   22.600840 H          1 MOL1         0.0783
      52    O13     15.771812   23.027709   23.148367 O.3        1 MOL1        -0.5519
      53    H25     15.595869   22.122222   23.506766 H          1 MOL1         0.3769
      54    C16     16.278790   22.176477   20.907132 C.3        1 MOL1         0.1018
      55    H26     15.314155   22.619290   20.625287 H          1 MOL1         0.0783
      56    C17     17.247675   22.280420   19.695980 C.3        1 MOL1         0.1043
      57    H27     18.084193   21.589204   19.858915 H          1 MOL1         0.0783
      58    O14     17.753918   23.633221   19.561099 O.3        1 MOL1        -0.3740
      59    C18     16.575257   21.893584   18.360114 C.3        1 MOL1         0.0138
      60    H28     16.194928   20.866090   18.434208 H          1 MOL1         0.0794
      61    H29     17.333356   21.908903   17.565753 H          1 MOL1         0.0794
      62    O15     15.507724   22.791669   18.043196 O.3        1 MOL1        -0.5486
      63    H30     15.894990   23.695075   18.070904 H          1 MOL1         0.3769
      64    C19     23.390111   22.647137   22.154246 C.3        1 MOL1         0.2972
      65    H31     24.430978   22.732515   22.490498 H          1 MOL1         0.0751
      66    O16     23.136666   21.372121   21.526885 O.3        1 MOL1        -0.3740
      67    C20     22.423717   22.807152   23.354819 C.3        1 MOL1         0.1003
      68    H32     22.609005   23.796011   23.793563 H          1 MOL1         0.0783
      69    O17     22.674562   21.794938   24.345408 O.3        1 MOL1        -0.5519
      70    H33     23.612917   21.509580   24.233984 H          1 MOL1         0.3769
      71    C21     20.948557   22.756771   22.883395 C.3        1 MOL1         0.1053
      72    H34     20.737480   21.736965   22.545375 H          1 MOL1         0.0783
      73    O18     20.078215   23.089978   23.970770 O.3        1 MOL1        -0.5519
      74    H35     19.310705   23.575566   23.585002 H          1 MOL1         0.3769
      75    C22     20.671157   23.693017   21.680580 C.3        1 MOL1         0.1018
      76    H36     20.553007   24.722215   22.045736 H          1 MOL1         0.0783
      77    C23     21.780970   23.629261   20.593562 C.3        1 MOL1         0.1043
      78    H37     21.675954   22.680038   20.051894 H          1 MOL1         0.0783
      79    O19     23.091764   23.691924   21.205062 O.3        1 MOL1        -0.3740
      80    C24     21.688574   24.768752   19.554404 C.3        1 MOL1         0.0138
      81    H38     20.750160   24.666586   18.993467 H          1 MOL1         0.0794
      82    H39     22.511532   24.658664   18.835526 H          1 MOL1         0.0794
      83    O20     21.748891   26.051230   20.185036 O.3        1 MOL1        -0.5486
      84    H40     22.592642   26.071155   20.689404 H          1 MOL1         0.3769
      85    C25     25.055218   17.694461   21.129724 C.3        1 MOL1         0.2972
      86    H41     25.753838   16.882487   20.889824 H          1 MOL1         0.0751
      87    O21     23.764539   17.189105   21.520796 O.3        1 MOL1        -0.3740
      88    C26     25.600431   18.572273   22.286619 C.3        1 MOL1         0.1003
      89    H42     26.563325   18.986882   21.960041 H          1 MOL1         0.0783
      90    O22     25.792228   17.799981   23.485413 O.3        1 MOL1        -0.5519
      91    H43     26.559881   17.207976   23.335952 H          1 MOL1         0.3769
      92    C27     24.643993   19.755602   22.575312 C.3        1 MOL1         0.1053
      93    H44     23.717221   19.338969   22.989038 H          1 MOL1         0.0783
      94    O23     25.259885   20.611737   23.543758 O.3        1 MOL1        -0.5519
      95    H45     25.642060   19.996877   24.210755 H          1 MOL1         0.3769
      96    C28     24.286995   20.537971   21.277800 C.3        1 MOL1         0.1018
      97    H46     25.149335   21.137310   20.956617 H          1 MOL1         0.0783
      98    C29     23.880537   19.589123   20.120241 C.3        1 MOL1         0.1043
      99    H47     22.896768   19.155816   20.343971 H          1 MOL1         0.0783
     100    O24     24.875245   18.546128   19.979900 O.3        1 MOL1        -0.3740
     101    C30     23.788113   20.327405   18.768879 C.3        1 MOL1         0.0138
     102    H48     24.780695   20.709485   18.495063 H          1 MOL1         0.0794
     103    H49     23.115159   21.188726   18.870712 H          1 MOL1         0.0794
     104    O25     23.294982   19.441137   17.762384 O.3        1 MOL1        -0.5486
     105    H50     23.879188   18.651319   17.786413 H          1 MOL1         0.3769
     106    C31     21.463149   13.806590   21.708183 C.3        1 MOL1         0.2972
     107    H51     21.025729   12.801917   21.768551 H          1 MOL1         0.0751
     108    O26     20.464129   14.812596   21.432520 O.3        1 MOL1        -0.3740
     109    C32     22.177854   14.155962   23.036360 C.3        1 MOL1         0.1003
     110    H52     22.997553   13.438225   23.171227 H          1 MOL1         0.0783
     111    O27     21.281775   14.067547   24.152330 O.3        1 MOL1        -0.5519
     112    H53     21.778793   14.467577   24.901033 H          1 MOL1         0.3769
     113    C33     22.787677   15.571892   22.961971 C.3        1 MOL1         0.1053
     114    H54     21.955940   16.281450   22.909611 H          1 MOL1         0.0783
     115    O28     23.573112   15.829533   24.132274 O.3        1 MOL1        -0.5519
     116    H55     24.106062   16.640152   23.946322 H          1 MOL1         0.3769
     117    C34     23.659872   15.764226   21.697371 C.3        1 MOL1         0.1018
     118    H56     24.637557   15.297626   21.877059 H          1 MOL1         0.0783
     119    C35     23.015359   15.181072   20.405850 C.3        1 MOL1         0.1043
     120    H57     22.215795   15.861609   20.085514 H          1 MOL1         0.0783
     121    O29     22.457627   13.867825   20.664349 O.3        1 MOL1        -0.3740
     122    C36     24.007456   15.045168   19.229392 C.3        1 MOL1         0.0138
     123    H58     24.344953   16.044686   18.926208 H          1 MOL1         0.0794
     124    H59     23.480040   14.605859   18.371972 H          1 MOL1         0.0794
     125    O30     25.129497   14.234545   19.590234 O.3        1 MOL1        -0.5486
     126    H60     24.763980   13.362893   19.860902 H          1 MOL1         0.3769
     127    N1      20.268496   20.415646   25.256634 N.4        1 MOL1        -0.5937
     128    H1      20.772869   21.208358   24.816706 H          1 MOL1         0.3684
     129    H2      20.942142   19.939482   25.859942 H          1 MOL1         0.3684
     130    H3      19.544792   20.829266   25.849128 H          1 MOL1         0.3684
     131    C1      19.682915   19.492067   24.224068 C.3        1 MOL1         0.1270
     132    H4      18.985535   20.095567   23.635565 H          1 MOL1         0.0960
     133    C2      18.901956   18.358168   24.910754 C.3        1 MOL1        -0.2382
     134    H5      19.556590   17.761055   25.557413 H          1 MOL1         0.1009
     135    H6      18.448476   17.681754   24.179327 H          1 MOL1         0.1009
     136    H7      18.091039   18.764556   25.527369 H          1 MOL1         0.1009
     137    C3      20.769476   18.931228   23.277316 C.3        1 MOL1        -0.1392
     138    H8      21.468212   19.730459   23.010024 H          1 MOL1         0.0998
     139    H9      21.366388   18.188825   23.820624 H          1 MOL1         0.0998
     140    C4      20.220508   18.315715   21.964681 C.3        1 MOL1        -0.1302
     141    H10     19.524472   17.496886   22.185600 H          1 MOL1         0.0998
     142    H11     21.051768   17.862894   21.407726 H          1 MOL1         0.0998
     143    C5      19.531024   19.358795   21.056990 C.3        1 MOL1        -0.2317
     144    H12     18.675665   19.827713   21.557158 H          1 MOL1         0.1009
     145    H13     20.232197   20.152117   20.765689 H          1 MOL1         0.1009
     146    H14     19.159806   18.885812   20.138955 H          1 MOL1         0.1009
@<TRIPOS>BOND
    1     1     2    1
    2     1     3    1
    3     1     4    1
    4     4     5    1
    5     4     6    1
    6     6     7    1
    7     4     8    1
    8     8     9    1
    9     8    10    1
   10    10    11    1
   11     8    12    1
   12    12    13    1
   13    12    14    1
   14    14    15    1
   15     1    16    1
   16    14    16    1
   17    14    17    1
   18    17    18    1
   19    17    19    1
   20    17    20    1
   21    20    21    1
   22    22    23    1
   23    22    24    1
   24    22    25    1
   25    25    26    1
   26    25    27    1
   27    27    28    1
   28    25    29    1
   29    29    30    1
   30    29    31    1
   31    31    32    1
   32     3    33    1
   33    29    33    1
   34    33    34    1
   35    33    35    1
   36    35    36    1
   37    22    37    1
   38    35    37    1
   39    35    38    1
   40    38    39    1
   41    38    40    1
   42    38    41    1
   43    41    42    1
   44    43    44    1
   45    43    45    1
   46    43    46    1
   47    46    47    1
   48    46    48    1
   49    48    49    1
   50    46    50    1
   51    50    51    1
   52    50    52    1
   53    52    53    1
   54    24    54    1
   55    50    54    1
   56    54    55    1
   57    54    56    1
   58    56    57    1
   59    43    58    1
   60    56    58    1
   61    56    59    1
   62    59    60    1
   63    59    61    1
   64    59    62    1
   65    62    63    1
   66    64    65    1
   67    64    66    1
   68    64    67    1
   69    67    68    1
   70    67    69    1
   71    69    70    1
   72    67    71    1
   73    71    72    1
   74    71    73    1
   75    73    74    1
   76    45    75    1
   77    71    75    1
   78    75    76    1
   79    75    77    1
   80    77    78    1
   81    64    79    1
   82    77    79    1
   83    77    80    1
   84    80    81    1
   85    80    82    1
   86    80    83    1
   87    83    84    1
   88    85    86    1
   89    85    87    1
   90    85    88    1
   91    88    89    1
   92    88    90    1
   93    90    91    1
   94    88    92    1
   95    92    93    1
   96    92    94    1
   97    94    95    1
   98    66    96    1
   99    92    96    1
  100    96    97    1
  101    96    98    1
  102    98    99    1
  103    85   100    1
  104    98   100    1
  105    98   101    1
  106   101   102    1
  107   101   103    1
  108   101   104    1
  109   104   105    1
  110   106   107    1
  111    12   108    1
  112   106   108    1
  113   106   109    1
  114   109   110    1
  115   109   111    1
  116   111   112    1
  117   109   113    1
  118   113   114    1
  119   113   115    1
  120   115   116    1
  121    87   117    1
  122   113   117    1
  123   117   118    1
  124   117   119    1
  125   119   120    1
  126   106   121    1
  127   119   121    1
  128   119   122    1
  129   122   123    1
  130   122   124    1
  131   122   125    1
  132   125   126    1
  133   127   128    1
  134   127   129    1
  135   127   130    1
  136   127   131    1
  137   131   132    1
  138   131   133    1
  139   133   134    1
  140   133   135    1
  141   133   136    1
  142   131   137    1
  143   137   138    1
  144   137   139    1
  145   137   140    1
  146   140   141    1
  147   140   142    1
  148   140   143    1
  149   143   144    1
  150   143   145    1
  151   143   146    1
@<TRIPOS>SUBSTRUCTURE
       1 MOL1            1 RESIDUE      1      MOL     
       2 MOL1          146 RESIDUE      1      MOL     
@<SCITEGIC>MOL_PROPERTY
VM2 Rank
SciTegic.value.IntegerValue
7

@<SCITEGIC>MOL_PROPERTY
Conf_Id
SciTegic.value.IntegerValue
25400

@<SCITEGIC>MOL_PROPERTY
Probability
SciTegic.value.DoubleValue
1.11

@<SCITEGIC>MOL_PROPERTY
Sum Probability
SciTegic.value.DoubleValue
9.49

@<SCITEGIC>MOL_PROPERTY
Delta G
SciTegic.value.DoubleValue
0.193

@<SCITEGIC>MOL_PROPERTY
G
SciTegic.value.DoubleValue
525.382

@<SCITEGIC>MOL_PROPERTY
E
SciTegic.value.DoubleValue
332.807

@<SCITEGIC>MOL_PROPERTY
-TS
SciTegic.value.DoubleValue
192.576

@<SCITEGIC>MOL_PROPERTY
U+W
SciTegic.value.DoubleValue
204.036

@<SCITEGIC>MOL_PROPERTY
U
SciTegic.value.DoubleValue
278.896

@<SCITEGIC>MOL_PROPERTY
W
SciTegic.value.DoubleValue
-74.849

@<SCITEGIC>MOL_PROPERTY
W(PB)
SciTegic.value.DoubleValue
-81.025

@<SCITEGIC>MOL_PROPERTY
W(SA)
SciTegic.value.DoubleValue
6.176

@<SCITEGIC>MOL_PROPERTY
Valence
SciTegic.value.DoubleValue
144.920

@<SCITEGIC>MOL_PROPERTY
Coulomb
SciTegic.value.DoubleValue
156.370

@<SCITEGIC>MOL_PROPERTY
VdW
SciTegic.value.DoubleValue
-22.394

@<SCITEGIC>MOL_PROPERTY
VdW6
SciTegic.value.DoubleValue
-172.434

@<SCITEGIC>MOL_PROPERTY
VdW12
SciTegic.value.DoubleValue
150.040

@<SCITEGIC>MOL_PROPERTY
Bond
SciTegic.value.DoubleValue
4.294

@<SCITEGIC>MOL_PROPERTY
Angle
SciTegic.value.DoubleValue
10.455

@<SCITEGIC>MOL_PROPERTY
Pdih
SciTegic.value.DoubleValue
130.172

@<SCITEGIC>MOL_PROPERTY
Idih
SciTegic.value.DoubleValue
0.000

@<SCITEGIC>MOL_PROPERTY
Tether
SciTegic.value.DoubleValue
0.000

@<TRIPOS>MOLECULE
CD_guest-s10_vm2_rndm.mol2 : vm2 host+ligand conformer 8
         146         151           2
SMALL
USER_CHARGES
 
@<TRIPOS>ATOM
       1    C1      16.322553   15.286086   20.803741 C.3        1 MOL1         0.2972
       2    H1      15.270172   15.156589   20.519600 H          1 MOL1         0.0751
       3    O1      16.598525   16.643290   21.206298 O.3        1 MOL1        -0.3740
       4    C2      16.700845   14.326316   21.962630 C.3        1 MOL1         0.1003
       5    H2      16.521146   13.302196   21.610301 H          1 MOL1         0.0783
       6    O2      15.905405   14.569629   23.130320 O.3        1 MOL1        -0.5519
       7    H3      16.289274   13.982120   23.819852 H          1 MOL1         0.3769
       8    C3      18.200299   14.449935   22.321826 C.3        1 MOL1         0.1053
       9    H4      18.362160   15.444653   22.757800 H          1 MOL1         0.0783
      10    O3      18.544073   13.441545   23.279320 O.3        1 MOL1        -0.5519
      11    H5      19.453868   13.657955   23.603104 H          1 MOL1         0.3769
      12    C4      19.096576   14.321366   21.062694 C.3        1 MOL1         0.1018
      13    H6      19.127703   13.272409   20.738944 H          1 MOL1         0.0783
      14    C5      18.590527   15.193789   19.882758 C.3        1 MOL1         0.1043
      15    H7      18.775290   16.249250   20.120707 H          1 MOL1         0.0783
      16    O4      17.172911   14.976489   19.680640 O.3        1 MOL1        -0.3740
      17    C6      19.304157   14.874179   18.550165 C.3        1 MOL1         0.0138
      18    H8      20.382279   15.041627   18.669082 H          1 MOL1         0.0794
      19    H9      18.944822   15.571322   17.781522 H          1 MOL1         0.0794
      20    O5      19.058973   13.523812   18.146853 O.3        1 MOL1        -0.5486
      21    H10     18.081710   13.415924   18.138909 H          1 MOL1         0.3769
      22    C7      14.776762   20.319234   21.676174 C.3        1 MOL1         0.2972
      23    H11     14.093146   21.164160   21.828394 H          1 MOL1         0.0751
      24    O6      16.093836   20.760624   21.289869 O.3        1 MOL1        -0.3740
      25    C8      14.880100   19.478912   22.972792 C.3        1 MOL1         0.1003
      26    H12     13.874733   19.097401   23.194122 H          1 MOL1         0.0783
      27    O7      15.336017   20.267298   24.080229 O.3        1 MOL1        -0.5519
      28    H13     15.513981   19.610865   24.790468 H          1 MOL1         0.3769
      29    C9      15.813099   18.264317   22.774893 C.3        1 MOL1         0.1053
      30    H14     16.838169   18.636681   22.654190 H          1 MOL1         0.0783
      31    O8      15.728801   17.417809   23.927357 O.3        1 MOL1        -0.5519
      32    H15     15.952898   16.503422   23.627291 H          1 MOL1         0.3769
      33    C10     15.445270   17.453819   21.508542 C.3        1 MOL1         0.1018
      34    H16     14.562485   16.840725   21.735714 H          1 MOL1         0.0783
      35    C11     15.163417   18.353192   20.269859 C.3        1 MOL1         0.1043
      36    H17     16.121052   18.752040   19.909651 H          1 MOL1         0.0783
      37    O9      14.285421   19.448794   20.634998 O.3        1 MOL1        -0.3740
      38    C12     14.504429   17.597646   19.094165 C.3        1 MOL1         0.0138
      39    H18     15.205389   16.842889   18.713970 H          1 MOL1         0.0794
      40    H19     14.318368   18.308418   18.277859 H          1 MOL1         0.0794
      41    O10     13.281389   16.975939   19.499128 O.3        1 MOL1        -0.5486
      42    H20     12.707132   17.695625   19.843874 H          1 MOL1         0.3769
      43    C13     18.396161   24.134058   20.725121 C.3        1 MOL1         0.2972
      44    H21     18.826991   25.110565   20.469133 H          1 MOL1         0.0751
      45    O11     19.418065   23.177675   21.075577 O.3        1 MOL1        -0.3740
      46    C14     17.371306   24.255667   21.883579 C.3        1 MOL1         0.1003
      47    H22     16.549970   24.890048   21.525274 H          1 MOL1         0.0783
      48    O12     17.943608   24.853967   23.052654 O.3        1 MOL1        -0.5519
      49    H23     17.231997   24.807583   23.730960 H          1 MOL1         0.3769
      50    C15     16.781319   22.869188   22.232846 C.3        1 MOL1         0.1053
      51    H24     17.587973   22.249397   22.648137 H          1 MOL1         0.0783
      52    O13     15.743521   23.025524   23.207128 O.3        1 MOL1        -0.5519
      53    H25     15.568930   22.122545   23.572656 H          1 MOL1         0.3769
      54    C16     16.228643   22.157576   20.968847 C.3        1 MOL1         0.1018
      55    H26     15.267543   22.605983   20.683241 H          1 MOL1         0.0783
      56    C17     17.191151   22.238512   19.753350 C.3        1 MOL1         0.1043
      57    H27     18.031020   21.551970   19.918163 H          1 MOL1         0.0783
      58    O14     17.674943   23.596814   19.596167 O.3        1 MOL1        -0.3740
      59    C18     16.491456   21.833636   18.439635 C.3        1 MOL1         0.0138
      60    H28     15.705604   22.564615   18.206581 H          1 MOL1         0.0794
      61    H29     16.009304   20.855940   18.571904 H          1 MOL1         0.0794
      62    O15     17.446290   21.766133   17.379040 O.3        1 MOL1        -0.5486
      63    H30     17.924543   22.625310   17.387247 H          1 MOL1         0.3769
      64    C19     23.349057   22.636693   22.113401 C.3        1 MOL1         0.2972
      65    H31     24.394199   22.718240   22.437266 H          1 MOL1         0.0751
      66    O16     23.085392   21.364434   21.483735 O.3        1 MOL1        -0.3740
      67    C20     22.398999   22.792819   23.327075 C.3        1 MOL1         0.1003
      68    H32     22.591776   23.779390   23.767723 H          1 MOL1         0.0783
      69    O17     22.661444   21.775638   24.309711 O.3        1 MOL1        -0.5519
      70    H33     23.593875   21.480135   24.176096 H          1 MOL1         0.3769
      71    C21     20.917787   22.747340   22.874416 C.3        1 MOL1         0.1053
      72    H34     20.700445   21.728433   22.537879 H          1 MOL1         0.0783
      73    O18     20.061980   23.080290   23.973395 O.3        1 MOL1        -0.5519
      74    H35     19.291284   23.568910   23.597988 H          1 MOL1         0.3769
      75    C22     20.625406   23.685292   21.675991 C.3        1 MOL1         0.1018
      76    H36     20.506669   24.713421   22.043834 H          1 MOL1         0.0783
      77    C23     21.723989   23.627766   20.577070 C.3        1 MOL1         0.1043
      78    H37     21.615265   22.681100   20.031802 H          1 MOL1         0.0783
      79    O19     23.040090   23.688795   21.176034 O.3        1 MOL1        -0.3740
      80    C24     21.620791   24.771554   19.543822 C.3        1 MOL1         0.0138
      81    H38     20.677861   24.670145   18.990493 H          1 MOL1         0.0794
      82    H39     22.437971   24.665487   18.817659 H          1 MOL1         0.0794
      83    O20     21.684434   26.051509   20.179273 O.3        1 MOL1        -0.5486
      84    H40     22.532708   26.070518   20.676030 H          1 MOL1         0.3769
      85    C25     24.989922   17.692403   21.009385 C.3        1 MOL1         0.2972
      86    H41     25.680116   16.878322   20.752801 H          1 MOL1         0.0751
      87    O21     23.700871   17.190004   21.410965 O.3        1 MOL1        -0.3740
      88    C26     25.557397   18.558084   22.165161 C.3        1 MOL1         0.1003
      89    H42     26.513160   18.977856   21.824478 H          1 MOL1         0.0783
      90    O22     25.773789   17.773364   23.351400 O.3        1 MOL1        -0.5519
      91    H43     26.543402   17.188988   23.182879 H          1 MOL1         0.3769
      92    C27     24.605450   19.736678   22.484660 C.3        1 MOL1         0.1053
      93    H44     23.681789   19.313586   22.898820 H          1 MOL1         0.0783
      94    O23     25.229197   20.575257   23.463592 O.3        1 MOL1        -0.5519
      95    H45     25.620297   19.948117   24.113745 H          1 MOL1         0.3769
      96    C28     24.237851   20.542062   21.205062 C.3        1 MOL1         0.1018
      97    H46     25.095151   21.153503   20.893601 H          1 MOL1         0.0783
      98    C29     23.827747   19.613650   20.030079 C.3        1 MOL1         0.1043
      99    H47     22.842560   19.183762   20.253804 H          1 MOL1         0.0783
     100    O24     24.800616   18.552725   19.867884 O.3        1 MOL1        -0.3740
     101    C30     23.722227   20.359777   18.681239 C.3        1 MOL1         0.0138
     102    H48     22.974518   21.158725   18.769620 H          1 MOL1         0.0794
     103    H49     23.364664   19.657207   17.916751 H          1 MOL1         0.0794
     104    O25     24.986056   20.908459   18.296314 O.3        1 MOL1        -0.5486
     105    H50     25.624433   20.161007   18.317340 H          1 MOL1         0.3769
     106    C31     21.406708   13.808777   21.687310 C.3        1 MOL1         0.2972
     107    H51     20.969673   12.805317   21.767555 H          1 MOL1         0.0751
     108    O26     20.403451   14.812305   21.416957 O.3        1 MOL1        -0.3740
     109    C32     22.146235   14.173339   22.997608 C.3        1 MOL1         0.1003
     110    H52     22.968360   13.456986   23.124916 H          1 MOL1         0.0783
     111    O27     21.272247   14.097770   24.131804 O.3        1 MOL1        -0.5519
     112    H53     21.783867   14.507010   24.865591 H          1 MOL1         0.3769
     113    C33     22.754950   15.588059   22.896117 C.3        1 MOL1         0.1053
     114    H54     21.922642   16.296975   22.852093 H          1 MOL1         0.0783
     115    O28     23.560872   15.855928   24.049980 O.3        1 MOL1        -0.5519
     116    H55     24.101507   16.656631   23.843632 H          1 MOL1         0.3769
     117    C34     23.602923   15.767226   21.612811 C.3        1 MOL1         0.1018
     118    H56     24.585030   15.305303   21.780119 H          1 MOL1         0.0783
     119    C35     22.936831   15.165449   20.340894 C.3        1 MOL1         0.1043
     120    H57     22.131706   15.841286   20.024760 H          1 MOL1         0.0783
     121    O29     22.383124   13.855981   20.625785 O.3        1 MOL1        -0.3740
     122    C36     23.909796   15.014873   19.150279 C.3        1 MOL1         0.0138
     123    H58     24.243483   16.010736   18.830402 H          1 MOL1         0.0794
     124    H59     23.368321   14.566373   18.306497 H          1 MOL1         0.0794
     125    O30     25.036524   14.206931   19.502599 O.3        1 MOL1        -0.5486
     126    H60     24.674277   13.339154   19.789677 H          1 MOL1         0.3769
     127    N1      20.263589   20.405396   25.258351 N.4        1 MOL1        -0.5937
     128    H1      19.549017   20.820398   25.860866 H          1 MOL1         0.3684
     129    H2      20.765117   21.197036   24.813267 H          1 MOL1         0.3684
     130    H3      20.943208   19.925514   25.851938 H          1 MOL1         0.3684
     131    C1      19.661686   19.486222   24.231306 C.3        1 MOL1         0.1270
     132    H4      18.959226   20.093821   23.653204 H          1 MOL1         0.0960
     133    C2      18.885130   18.353205   24.924533 C.3        1 MOL1        -0.2382
     134    H5      19.545751   17.751383   25.560660 H          1 MOL1         0.1009
     135    H6      18.419278   17.680993   24.196943 H          1 MOL1         0.1009
     136    H7      18.084012   18.760866   25.553029 H          1 MOL1         0.1009
     137    C3      20.734517   18.924380   23.269613 C.3        1 MOL1        -0.1392
     138    H8      21.430627   19.722830   22.993224 H          1 MOL1         0.0998
     139    H9      21.337885   18.181403   23.804966 H          1 MOL1         0.0998
     140    C4      20.167503   18.309722   21.964167 C.3        1 MOL1        -0.1302
     141    H10     19.483430   17.483405   22.194433 H          1 MOL1         0.0998
     142    H11     20.992663   17.867613   21.389963 H          1 MOL1         0.0998
     143    C5      19.451100   19.349600   21.074165 C.3        1 MOL1        -0.2317
     144    H12     18.597362   19.802884   21.590826 H          1 MOL1         0.1009
     145    H13     20.136263   20.155052   20.778513 H          1 MOL1         0.1009
     146    H14     19.071047   18.879175   20.158312 H          1 MOL1         0.1009
@<TRIPOS>BOND
    1     1     2    1
    2     1     3    1
    3     1     4    1
    4     4     5    1
    5     4     6    1
    6     6     7    1
    7     4     8    1
    8     8     9    1
    9     8    10    1
   10    10    11    1
   11     8    12    1
   12    12    13    1
   13    12    14    1
   14    14    15    1
   15     1    16    1
   16    14    16    1
   17    14    17    1
   18    17    18    1
   19    17    19    1
   20    17    20    1
   21    20    21    1
   22    22    23    1
   23    22    24    1
   24    22    25    1
   25    25    26    1
   26    25    27    1
   27    27    28    1
   28    25    29    1
   29    29    30    1
   30    29    31    1
   31    31    32    1
   32     3    33    1
   33    29    33    1
   34    33    34    1
   35    33    35    1
   36    35    36    1
   37    22    37    1
   38    35    37    1
   39    35    38    1
   40    38    39    1
   41    38    40    1
   42    38    41    1
   43    41    42    1
   44    43    44    1
   45    43    45    1
   46    43    46    1
   47    46    47    1
   48    46    48    1
   49    48    49    1
   50    46    50    1
   51    50    51    1
   52    50    52    1
   53    52    53    1
   54    24    54    1
   55    50    54    1
   56    54    55    1
   57    54    56    1
   58    56    57    1
   59    43    58    1
   60    56    58    1
   61    56    59    1
   62    59    60    1
   63    59    61    1
   64    59    62    1
   65    62    63    1
   66    64    65    1
   67    64    66    1
   68    64    67    1
   69    67    68    1
   70    67    69    1
   71    69    70    1
   72    67    71    1
   73    71    72    1
   74    71    73    1
   75    73    74    1
   76    45    75    1
   77    71    75    1
   78    75    76    1
   79    75    77    1
   80    77    78    1
   81    64    79    1
   82    77    79    1
   83    77    80    1
   84    80    81    1
   85    80    82    1
   86    80    83    1
   87    83    84    1
   88    85    86    1
   89    85    87    1
   90    85    88    1
   91    88    89    1
   92    88    90    1
   93    90    91    1
   94    88    92    1
   95    92    93    1
   96    92    94    1
   97    94    95    1
   98    66    96    1
   99    92    96    1
  100    96    97    1
  101    96    98    1
  102    98    99    1
  103    85   100    1
  104    98   100    1
  105    98   101    1
  106   101   102    1
  107   101   103    1
  108   101   104    1
  109   104   105    1
  110   106   107    1
  111    12   108    1
  112   106   108    1
  113   106   109    1
  114   109   110    1
  115   109   111    1
  116   111   112    1
  117   109   113    1
  118   113   114    1
  119   113   115    1
  120   115   116    1
  121    87   117    1
  122   113   117    1
  123   117   118    1
  124   117   119    1
  125   119   120    1
  126   106   121    1
  127   119   121    1
  128   119   122    1
  129   122   123    1
  130   122   124    1
  131   122   125    1
  132   125   126    1
  133   127   128    1
  134   127   129    1
  135   127   130    1
  136   127   131    1
  137   131   132    1
  138   131   133    1
  139   133   134    1
  140   133   135    1
  141   133   136    1
  142   131   137    1
  143   137   138    1
  144   137   139    1
  145   137   140    1
  146   140   141    1
  147   140   142    1
  148   140   143    1
  149   143   144    1
  150   143   145    1
  151   143   146    1
@<TRIPOS>SUBSTRUCTURE
       1 MOL1            1 RESIDUE      1      MOL     
       2 MOL1          146 RESIDUE      1      MOL     
@<SCITEGIC>MOL_PROPERTY
VM2 Rank
SciTegic.value.IntegerValue
8

@<SCITEGIC>MOL_PROPERTY
Conf_Id
SciTegic.value.IntegerValue
24707

@<SCITEGIC>MOL_PROPERTY
Probability
SciTegic.value.DoubleValue
1.00

@<SCITEGIC>MOL_PROPERTY
Sum Probability
SciTegic.value.DoubleValue
10.48

@<SCITEGIC>MOL_PROPERTY
Delta G
SciTegic.value.DoubleValue
0.255

@<SCITEGIC>MOL_PROPERTY
G
SciTegic.value.DoubleValue
525.445

@<SCITEGIC>MOL_PROPERTY
E
SciTegic.value.DoubleValue
332.726

@<SCITEGIC>MOL_PROPERTY
-TS
SciTegic.value.DoubleValue
192.718

@<SCITEGIC>MOL_PROPERTY
U+W
SciTegic.value.DoubleValue
203.956

@<SCITEGIC>MOL_PROPERTY
U
SciTegic.value.DoubleValue
278.894

@<SCITEGIC>MOL_PROPERTY
W
SciTegic.value.DoubleValue
-74.939

@<SCITEGIC>MOL_PROPERTY
W(PB)
SciTegic.value.DoubleValue
-81.118

@<SCITEGIC>MOL_PROPERTY
W(SA)
SciTegic.value.DoubleValue
6.179

@<SCITEGIC>MOL_PROPERTY
Valence
SciTegic.value.DoubleValue
144.966

@<SCITEGIC>MOL_PROPERTY
Coulomb
SciTegic.value.DoubleValue
156.184

@<SCITEGIC>MOL_PROPERTY
VdW
SciTegic.value.DoubleValue
-22.256

@<SCITEGIC>MOL_PROPERTY
VdW6
SciTegic.value.DoubleValue
-172.354

@<SCITEGIC>MOL_PROPERTY
VdW12
SciTegic.value.DoubleValue
150.098

@<SCITEGIC>MOL_PROPERTY
Bond
SciTegic.value.DoubleValue
4.310

@<SCITEGIC>MOL_PROPERTY
Angle
SciTegic.value.DoubleValue
10.452

@<SCITEGIC>MOL_PROPERTY
Pdih
SciTegic.value.DoubleValue
130.204

@<SCITEGIC>MOL_PROPERTY
Idih
SciTegic.value.DoubleValue
0.000

@<SCITEGIC>MOL_PROPERTY
Tether
SciTegic.value.DoubleValue
0.000

