@<TRIPOS>MOLECULE
CD_guest-1_vm2_rndm.mol2 : vm2 host+ligand conformer 1
         143         148           2
SMALL
USER_CHARGES
 
@<TRIPOS>ATOM
       1    C1      16.390901   15.312431   20.688655 C.3        1 MOL1         0.2972
       2    H1      15.346088   15.181914   20.379484 H          1 MOL1         0.0751
       3    O1      16.664650   16.681881   21.049500 O.3        1 MOL1        -0.3740
       4    C2      16.736282   14.371542   21.875637 C.3        1 MOL1         0.1003
       5    H2      16.554830   13.343679   21.535270 H          1 MOL1         0.0783
       6    O2      15.920019   14.634210   23.024660 O.3        1 MOL1        -0.5519
       7    H3      16.271524   14.037008   23.723174 H          1 MOL1         0.3769
       8    C3      18.228994   14.482837   22.265728 C.3        1 MOL1         0.1053
       9    H4      18.388920   15.475810   22.703214 H          1 MOL1         0.0783
      10    O3      18.543732   13.473478   23.231828 O.3        1 MOL1        -0.5519
      11    H5      19.444885   13.687705   23.580468 H          1 MOL1         0.3769
      12    C4      19.155198   14.344959   21.029774 C.3        1 MOL1         0.1018
      13    H6      19.188420   13.295058   20.708875 H          1 MOL1         0.0783
      14    C5      18.683333   15.210804   19.834068 C.3        1 MOL1         0.1043
      15    H7      18.864652   16.268399   20.065627 H          1 MOL1         0.0783
      16    O4      17.273206   14.971807   19.598621 O.3        1 MOL1        -0.3740
      17    C6      19.436810   14.860239   18.534401 C.3        1 MOL1         0.0138
      18    H8      19.194051   13.830173   18.240763 H          1 MOL1         0.0794
      19    H9      20.518317   14.908889   18.715289 H          1 MOL1         0.0794
      20    O5      19.075166   15.776218   17.499654 O.3        1 MOL1        -0.5486
      21    H10     18.092534   15.776767   17.466642 H          1 MOL1         0.3769
      22    C7      14.850898   20.303873   21.813006 C.3        1 MOL1         0.2972
      23    H11     14.187428   21.139339   22.070864 H          1 MOL1         0.0751
      24    O6      16.058584   20.761389   21.168847 O.3        1 MOL1        -0.3740
      25    C8      15.225424   19.496154   23.084129 C.3        1 MOL1         0.1003
      26    H12     14.293611   19.098340   23.505995 H          1 MOL1         0.0783
      27    O7      15.863048   20.336154   24.061271 O.3        1 MOL1        -0.5519
      28    H13     15.676089   21.272194   23.810971 H          1 MOL1         0.3769
      29    C9      16.135555   18.299592   22.712387 C.3        1 MOL1         0.1053
      30    H14     17.088125   18.714681   22.364142 H          1 MOL1         0.0783
      31    O8      16.356191   17.455489   23.852119 O.3        1 MOL1        -0.5519
      32    H15     16.307313   16.524077   23.526785 H          1 MOL1         0.3769
      33    C10     15.554759   17.452788   21.553773 C.3        1 MOL1         0.1018
      34    H16     14.755717   16.812398   21.951017 H          1 MOL1         0.0783
      35    C11     15.009010   18.322289   20.384009 C.3        1 MOL1         0.1043
      36    H17     15.864831   18.741776   19.838454 H          1 MOL1         0.0783
      37    O9      14.188498   19.398695   20.904548 O.3        1 MOL1        -0.3740
      38    C12     14.155851   17.533757   19.365329 C.3        1 MOL1         0.0138
      39    H18     14.795218   16.805705   18.849213 H          1 MOL1         0.0794
      40    H19     13.780716   18.231622   18.604748 H          1 MOL1         0.0794
      41    O10     13.065242   16.866488   20.006601 O.3        1 MOL1        -0.5486
      42    H20     12.540813   17.564722   20.458233 H          1 MOL1         0.3769
      43    C13     18.357947   24.113827   20.634231 C.3        1 MOL1         0.2972
      44    H21     18.816771   25.080876   20.390907 H          1 MOL1         0.0751
      45    O11     19.357028   23.115896   20.936765 O.3        1 MOL1        -0.3740
      46    C14     17.357866   24.247151   21.812457 C.3        1 MOL1         0.1003
      47    H22     16.554514   24.914551   21.474029 H          1 MOL1         0.0783
      48    O12     17.965133   24.815757   22.981726 O.3        1 MOL1        -0.5519
      49    H23     18.633430   24.159376   23.303429 H          1 MOL1         0.3769
      50    C15     16.725009   22.876031   22.147688 C.3        1 MOL1         0.1053
      51    H24     17.512024   22.234203   22.567257 H          1 MOL1         0.0783
      52    O13     15.690216   23.075147   23.117145 O.3        1 MOL1        -0.5519
      53    H25     16.054698   23.738561   23.746377 H          1 MOL1         0.3769
      54    C16     16.153460   22.171334   20.885067 C.3        1 MOL1         0.1018
      55    H26     15.172289   22.597974   20.637263 H          1 MOL1         0.0783
      56    C17     17.073467   22.286296   19.637755 C.3        1 MOL1         0.1043
      57    H27     17.901432   21.573812   19.740401 H          1 MOL1         0.0783
      58    O14     17.589582   23.635158   19.511473 O.3        1 MOL1        -0.3740
      59    C18     16.315596   21.949600   18.337140 C.3        1 MOL1         0.0138
      60    H28     15.528839   22.697808   18.171524 H          1 MOL1         0.0794
      61    H29     15.829126   20.970774   18.445296 H          1 MOL1         0.0794
      62    O15     17.224173   21.923719   17.234824 O.3        1 MOL1        -0.5486
      63    H30     17.721114   22.771689   17.271483 H          1 MOL1         0.3769
      64    C19     23.273563   22.572017   22.177192 C.3        1 MOL1         0.2972
      65    H31     24.290981   22.690846   22.570556 H          1 MOL1         0.0751
      66    O16     23.108232   21.306717   21.505147 O.3        1 MOL1        -0.3740
      67    C20     22.236761   22.669804   23.326735 C.3        1 MOL1         0.1003
      68    H32     22.367359   23.652984   23.797408 H          1 MOL1         0.0783
      69    O17     22.434729   21.641671   24.311398 O.3        1 MOL1        -0.5519
      70    H33     23.376882   21.354478   24.243147 H          1 MOL1         0.3769
      71    C21     20.795571   22.581247   22.779314 C.3        1 MOL1         0.1053
      72    H34     20.651183   21.564461   22.397707 H          1 MOL1         0.0783
      73    O18     19.880511   22.833501   23.849930 O.3        1 MOL1        -0.5519
      74    H35     20.264310   22.356094   24.619441 H          1 MOL1         0.3769
      75    C22     20.551211   23.564723   21.608268 C.3        1 MOL1         0.1018
      76    H36     20.442170   24.579753   22.012385 H          1 MOL1         0.0783
      77    C23     21.700683   23.533003   20.562857 C.3        1 MOL1         0.1043
      78    H37     21.638708   22.585912   20.010449 H          1 MOL1         0.0783
      79    O19     22.983540   23.623202   21.231027 O.3        1 MOL1        -0.3740
      80    C24     21.622838   24.680857   19.531639 C.3        1 MOL1         0.0138
      81    H38     20.709648   24.562542   18.933417 H          1 MOL1         0.0794
      82    H39     22.475741   24.597371   18.844811 H          1 MOL1         0.0794
      83    O20     21.627330   25.957947   20.176183 O.3        1 MOL1        -0.5486
      84    H40     22.451527   25.994062   20.710979 H          1 MOL1         0.3769
      85    C25     25.113453   17.683918   21.194293 C.3        1 MOL1         0.2972
      86    H41     25.824845   16.871355   20.998219 H          1 MOL1         0.0751
      87    O21     23.794178   17.182298   21.486593 O.3        1 MOL1        -0.3740
      88    C26     25.577682   18.558346   22.388120 C.3        1 MOL1         0.1003
      89    H42     26.545432   19.000035   22.115666 H          1 MOL1         0.0783
      90    O22     25.730144   17.780815   23.587928 O.3        1 MOL1        -0.5519
      91    H43     26.526496   17.218673   23.476340 H          1 MOL1         0.3769
      92    C27     24.577977   19.715297   22.632631 C.3        1 MOL1         0.1053
      93    H44     23.630864   19.276531   22.974551 H          1 MOL1         0.0783
      94    O23     25.108935   20.566473   23.654192 O.3        1 MOL1        -0.5519
      95    H45     25.471336   19.947471   24.328680 H          1 MOL1         0.3769
      96    C28     24.299871   20.514029   21.326085 C.3        1 MOL1         0.1018
      97    H46     25.165382   21.147130   21.089060 H          1 MOL1         0.0783
      98    C29     24.015760   19.586772   20.113599 C.3        1 MOL1         0.1043
      99    H47     23.018937   19.142201   20.228351 H          1 MOL1         0.0783
     100    O24     25.023248   18.548371   20.043249 O.3        1 MOL1        -0.3740
     101    C30     24.047149   20.358637   18.778406 C.3        1 MOL1         0.0138
     102    H48     25.058250   20.753248   18.610616 H          1 MOL1         0.0794
     103    H49     23.360375   21.213441   18.837575 H          1 MOL1         0.0794
     104    O25     23.660034   19.496087   17.707255 O.3        1 MOL1        -0.5486
     105    H50     24.241383   18.706077   17.770444 H          1 MOL1         0.3769
     106    C31     21.449670   13.826620   21.705208 C.3        1 MOL1         0.2972
     107    H51     21.007632   12.824574   21.775023 H          1 MOL1         0.0751
     108    O26     20.455321   14.831940   21.413687 O.3        1 MOL1        -0.3740
     109    C32     22.160053   14.184640   23.032912 C.3        1 MOL1         0.1003
     110    H52     22.968154   13.456299   23.180579 H          1 MOL1         0.0783
     111    O27     21.256563   14.118702   24.144373 O.3        1 MOL1        -0.5519
     112    H53     21.756842   14.514155   24.893450 H          1 MOL1         0.3769
     113    C33     22.794363   15.589995   22.952508 C.3        1 MOL1         0.1053
     114    H54     21.980247   16.320085   22.900528 H          1 MOL1         0.0783
     115    O28     23.580874   15.826366   24.125931 O.3        1 MOL1        -0.5519
     116    H55     24.112075   16.642722   23.958574 H          1 MOL1         0.3769
     117    C34     23.670871   15.761442   21.686576 C.3        1 MOL1         0.1018
     118    H56     24.642188   15.282398   21.867979 H          1 MOL1         0.0783
     119    C35     23.018918   15.178291   20.399253 C.3        1 MOL1         0.1043
     120    H57     22.226940   15.866008   20.074563 H          1 MOL1         0.0783
     121    O29     22.446190   13.871805   20.662273 O.3        1 MOL1        -0.3740
     122    C36     24.013198   15.030975   19.226279 C.3        1 MOL1         0.0138
     123    H58     24.375979   16.026021   18.936832 H          1 MOL1         0.0794
     124    H59     23.480504   14.613504   18.361332 H          1 MOL1         0.0794
     125    O30     25.113754   14.190505   19.585144 O.3        1 MOL1        -0.5486
     126    H60     24.725557   13.328617   19.855565 H          1 MOL1         0.3769
     127    N1      18.414584   19.203776   25.039379 N.4        1 MOL1        -0.5891
     128    H1      17.587319   18.663338   24.726257 H          1 MOL1         0.3726
     129    H2      18.027359   20.047119   25.475420 H          1 MOL1         0.3726
     130    H3      18.890848   18.658144   25.761672 H          1 MOL1         0.3726
     131    C1      19.309409   19.546400   23.867338 C.3        1 MOL1         0.0314
     132    H4      20.146535   20.147798   24.233278 H          1 MOL1         0.0999
     133    H5      18.719240   20.160302   23.181767 H          1 MOL1         0.0999
     134    C2      19.842680   18.304216   23.129393 C.3        1 MOL1        -0.1308
     135    H6      20.531272   17.769423   23.795475 H          1 MOL1         0.1025
     136    H7      19.018837   17.614296   22.915637 H          1 MOL1         0.1025
     137    C3      20.560912   18.654443   21.806688 C.3        1 MOL1        -0.1243
     138    H8      20.987552   17.739508   21.374091 H          1 MOL1         0.1025
     139    H9      21.405959   19.322000   22.016952 H          1 MOL1         0.1025
     140    C4      19.624220   19.305015   20.762606 C.3        1 MOL1        -0.2258
     141    H10     18.781533   18.644918   20.519650 H          1 MOL1         0.1036
     142    H11     20.168578   19.509651   19.831433 H          1 MOL1         0.1036
     143    H12     19.215103   20.256404   21.121990 H          1 MOL1         0.1036
@<TRIPOS>BOND
    1     1     2    1
    2     1     3    1
    3     1     4    1
    4     4     5    1
    5     4     6    1
    6     6     7    1
    7     4     8    1
    8     8     9    1
    9     8    10    1
   10    10    11    1
   11     8    12    1
   12    12    13    1
   13    12    14    1
   14    14    15    1
   15     1    16    1
   16    14    16    1
   17    14    17    1
   18    17    18    1
   19    17    19    1
   20    17    20    1
   21    20    21    1
   22    22    23    1
   23    22    24    1
   24    22    25    1
   25    25    26    1
   26    25    27    1
   27    27    28    1
   28    25    29    1
   29    29    30    1
   30    29    31    1
   31    31    32    1
   32     3    33    1
   33    29    33    1
   34    33    34    1
   35    33    35    1
   36    35    36    1
   37    22    37    1
   38    35    37    1
   39    35    38    1
   40    38    39    1
   41    38    40    1
   42    38    41    1
   43    41    42    1
   44    43    44    1
   45    43    45    1
   46    43    46    1
   47    46    47    1
   48    46    48    1
   49    48    49    1
   50    46    50    1
   51    50    51    1
   52    50    52    1
   53    52    53    1
   54    24    54    1
   55    50    54    1
   56    54    55    1
   57    54    56    1
   58    56    57    1
   59    43    58    1
   60    56    58    1
   61    56    59    1
   62    59    60    1
   63    59    61    1
   64    59    62    1
   65    62    63    1
   66    64    65    1
   67    64    66    1
   68    64    67    1
   69    67    68    1
   70    67    69    1
   71    69    70    1
   72    67    71    1
   73    71    72    1
   74    71    73    1
   75    73    74    1
   76    45    75    1
   77    71    75    1
   78    75    76    1
   79    75    77    1
   80    77    78    1
   81    64    79    1
   82    77    79    1
   83    77    80    1
   84    80    81    1
   85    80    82    1
   86    80    83    1
   87    83    84    1
   88    85    86    1
   89    85    87    1
   90    85    88    1
   91    88    89    1
   92    88    90    1
   93    90    91    1
   94    88    92    1
   95    92    93    1
   96    92    94    1
   97    94    95    1
   98    66    96    1
   99    92    96    1
  100    96    97    1
  101    96    98    1
  102    98    99    1
  103    85   100    1
  104    98   100    1
  105    98   101    1
  106   101   102    1
  107   101   103    1
  108   101   104    1
  109   104   105    1
  110   106   107    1
  111    12   108    1
  112   106   108    1
  113   106   109    1
  114   109   110    1
  115   109   111    1
  116   111   112    1
  117   109   113    1
  118   113   114    1
  119   113   115    1
  120   115   116    1
  121    87   117    1
  122   113   117    1
  123   117   118    1
  124   117   119    1
  125   119   120    1
  126   106   121    1
  127   119   121    1
  128   119   122    1
  129   122   123    1
  130   122   124    1
  131   122   125    1
  132   125   126    1
  133   127   128    1
  134   127   129    1
  135   127   130    1
  136   127   131    1
  137   131   132    1
  138   131   133    1
  139   131   134    1
  140   134   135    1
  141   134   136    1
  142   134   137    1
  143   137   138    1
  144   137   139    1
  145   137   140    1
  146   140   141    1
  147   140   142    1
  148   140   143    1
@<TRIPOS>SUBSTRUCTURE
       1 MOL1            1 RESIDUE      1      MOL     
       2 MOL1          143 RESIDUE      1      MOL     
@<SCITEGIC>MOL_PROPERTY
VM2 Rank
SciTegic.value.IntegerValue
1

@<SCITEGIC>MOL_PROPERTY
Conf_Id
SciTegic.value.IntegerValue
21251

@<SCITEGIC>MOL_PROPERTY
Probability
SciTegic.value.DoubleValue
1.49

@<SCITEGIC>MOL_PROPERTY
Sum Probability
SciTegic.value.DoubleValue
1.49

@<SCITEGIC>MOL_PROPERTY
Delta G
SciTegic.value.DoubleValue
0.000

@<SCITEGIC>MOL_PROPERTY
G
SciTegic.value.DoubleValue
539.931

@<SCITEGIC>MOL_PROPERTY
E
SciTegic.value.DoubleValue
351.904

@<SCITEGIC>MOL_PROPERTY
-TS
SciTegic.value.DoubleValue
188.028

@<SCITEGIC>MOL_PROPERTY
U+W
SciTegic.value.DoubleValue
225.816

@<SCITEGIC>MOL_PROPERTY
U
SciTegic.value.DoubleValue
301.898

@<SCITEGIC>MOL_PROPERTY
W
SciTegic.value.DoubleValue
-76.082

@<SCITEGIC>MOL_PROPERTY
W(PB)
SciTegic.value.DoubleValue
-82.157

@<SCITEGIC>MOL_PROPERTY
W(SA)
SciTegic.value.DoubleValue
6.075

@<SCITEGIC>MOL_PROPERTY
Valence
SciTegic.value.DoubleValue
144.338

@<SCITEGIC>MOL_PROPERTY
Coulomb
SciTegic.value.DoubleValue
178.963

@<SCITEGIC>MOL_PROPERTY
VdW
SciTegic.value.DoubleValue
-21.403

@<SCITEGIC>MOL_PROPERTY
VdW6
SciTegic.value.DoubleValue
-169.540

@<SCITEGIC>MOL_PROPERTY
VdW12
SciTegic.value.DoubleValue
148.137

@<SCITEGIC>MOL_PROPERTY
Bond
SciTegic.value.DoubleValue
4.355

@<SCITEGIC>MOL_PROPERTY
Angle
SciTegic.value.DoubleValue
10.093

@<SCITEGIC>MOL_PROPERTY
Pdih
SciTegic.value.DoubleValue
129.890

@<SCITEGIC>MOL_PROPERTY
Idih
SciTegic.value.DoubleValue
0.000

@<SCITEGIC>MOL_PROPERTY
Tether
SciTegic.value.DoubleValue
0.000

