@<TRIPOS>MOLECULE
CD_guest-4_vm2_rndm.mol2 : vm2 host+ligand conformer 1
         142         148           2
SMALL
USER_CHARGES
 
@<TRIPOS>ATOM
       1    C1      16.280331   15.118892   21.217364 C.3        1 MOL1         0.2972
       2    H1      15.194916   14.957506   21.187076 H          1 MOL1         0.0751
       3    O1      16.607665   16.507986   21.424441 O.3        1 MOL1        -0.3740
       4    C2      16.932161   14.286339   22.351489 C.3        1 MOL1         0.1003
       5    H2      16.729147   13.229138   22.136701 H          1 MOL1         0.0783
       6    O2      16.372435   14.617022   23.632113 O.3        1 MOL1        -0.5519
       7    H3      16.396112   15.603469   23.723241 H          1 MOL1         0.3769
       8    C3      18.468336   14.480738   22.361048 C.3        1 MOL1         0.1053
       9    H4      18.681780   15.516643   22.650006 H          1 MOL1         0.0783
      10    O3      19.054913   13.581854   23.308313 O.3        1 MOL1        -0.5519
      11    H5      18.515845   13.682959   24.123762 H          1 MOL1         0.3769
      12    C4      19.078279   14.235823   20.958752 C.3        1 MOL1         0.1018
      13    H6      19.095907   13.153322   20.775448 H          1 MOL1         0.0783
      14    C5      18.290834   14.953559   19.827247 C.3        1 MOL1         0.1043
      15    H7      18.480128   16.032756   19.902568 H          1 MOL1         0.0783
      16    O4      16.872928   14.696464   19.971278 O.3        1 MOL1        -0.3740
      17    C6      18.705835   14.501524   18.409194 C.3        1 MOL1         0.0138
      18    H8      19.752445   14.782644   18.234653 H          1 MOL1         0.0794
      19    H9      18.096236   15.043157   17.673642 H          1 MOL1         0.0794
      20    O5      18.540573   13.089556   18.247542 O.3        1 MOL1        -0.5486
      21    H10     17.596327   12.899521   18.444405 H          1 MOL1         0.3769
      22    C7      14.892612   20.247573   21.900868 C.3        1 MOL1         0.2972
      23    H11     14.232372   21.107260   22.073695 H          1 MOL1         0.0751
      24    O6      16.172888   20.655097   21.376063 O.3        1 MOL1        -0.3740
      25    C8      15.108534   19.460314   23.218680 C.3        1 MOL1         0.1003
      26    H12     14.127537   19.079350   23.531286 H          1 MOL1         0.0783
      27    O7      15.635138   20.294237   24.262327 O.3        1 MOL1        -0.5519
      28    H13     15.663120   21.217955   23.912581 H          1 MOL1         0.3769
      29    C9      16.036044   18.247671   22.977907 C.3        1 MOL1         0.1053
      30    H14     17.028653   18.626194   22.705403 H          1 MOL1         0.0783
      31    O8      16.120813   17.479111   24.181152 O.3        1 MOL1        -0.5519
      32    H15     16.234167   18.150630   24.891195 H          1 MOL1         0.3769
      33    C10     15.518109   17.367157   21.814743 C.3        1 MOL1         0.1018
      34    H16     14.653340   16.794647   22.175845 H          1 MOL1         0.0783
      35    C11     15.118020   18.203758   20.564997 C.3        1 MOL1         0.1043
      36    H17     16.037623   18.565380   20.085867 H          1 MOL1         0.0783
      37    O9      14.296235   19.335265   20.953840 O.3        1 MOL1        -0.3740
      38    C12     14.330173   17.391525   19.512976 C.3        1 MOL1         0.0138
      39    H18     14.973626   16.593164   19.120157 H          1 MOL1         0.0794
      40    H19     14.079624   18.051760   18.671912 H          1 MOL1         0.0794
      41    O10     13.140104   16.832891   20.077401 O.3        1 MOL1        -0.5486
      42    H20     12.621568   17.589836   20.430584 H          1 MOL1         0.3769
      43    C13     18.418119   24.068319   20.692150 C.3        1 MOL1         0.2972
      44    H21     18.801917   25.052770   20.395780 H          1 MOL1         0.0751
      45    O11     19.468680   23.191974   21.149519 O.3        1 MOL1        -0.3740
      46    C14     17.392228   24.210367   21.842198 C.3        1 MOL1         0.1003
      47    H22     16.562513   24.824670   21.468938 H          1 MOL1         0.0783
      48    O12     17.982002   24.857347   22.981146 O.3        1 MOL1        -0.5519
      49    H23     18.907290   24.514209   23.070125 H          1 MOL1         0.3769
      50    C15     16.820963   22.827692   22.240642 C.3        1 MOL1         0.1053
      51    H24     17.633064   22.248353   22.698217 H          1 MOL1         0.0783
      52    O13     15.767170   23.019267   23.189824 O.3        1 MOL1        -0.5519
      53    H25     16.100278   23.719172   23.796774 H          1 MOL1         0.3769
      54    C16     16.304841   22.041192   21.003790 C.3        1 MOL1         0.1018
      55    H26     15.345383   22.461260   20.673475 H          1 MOL1         0.0783
      56    C17     17.297419   22.080839   19.810292 C.3        1 MOL1         0.1043
      57    H27     18.157712   21.437839   20.033132 H          1 MOL1         0.0783
      58    O14     17.736483   23.442041   19.585830 O.3        1 MOL1        -0.3740
      59    C18     16.645587   21.579535   18.505023 C.3        1 MOL1         0.0138
      60    H28     15.808650   22.239588   18.240383 H          1 MOL1         0.0794
      61    H29     16.238120   20.572968   18.667975 H          1 MOL1         0.0794
      62    O15     17.613079   21.550747   17.453799 O.3        1 MOL1        -0.5486
      63    H30     17.992824   22.456158   17.410556 H          1 MOL1         0.3769
      64    C19     23.591132   22.743866   21.269235 C.3        1 MOL1         0.2972
      65    H31     24.680575   22.859076   21.199093 H          1 MOL1         0.0751
      66    O16     23.218404   21.375440   21.529645 O.3        1 MOL1        -0.3740
      67    C20     22.999705   23.655334   22.377399 C.3        1 MOL1         0.1003
      68    H32     23.209324   24.693620   22.089070 H          1 MOL1         0.0783
      69    O17     23.599696   23.401231   23.656235 O.3        1 MOL1        -0.5519
      70    H33     23.435482   22.448665   23.873788 H          1 MOL1         0.3769
      71    C21     21.463231   23.483305   22.449376 C.3        1 MOL1         0.1053
      72    H34     21.250918   22.456724   22.773701 H          1 MOL1         0.0783
      73    O18     20.918456   24.412792   23.391605 O.3        1 MOL1        -0.5519
      74    H35     21.515510   24.366783   24.171390 H          1 MOL1         0.3769
      75    C22     20.813120   23.701216   21.060268 C.3        1 MOL1         0.1018
      76    H36     20.832506   24.775886   20.836547 H          1 MOL1         0.0783
      77    C23     21.542375   22.919422   19.931600 C.3        1 MOL1         0.1043
      78    H37     21.319953   21.850325   20.048681 H          1 MOL1         0.0783
      79    O19     22.973783   23.135115   20.024280 O.3        1 MOL1        -0.3740
      80    C24     21.099991   23.339153   18.512318 C.3        1 MOL1         0.0138
      81    H38     20.036828   23.101508   18.383135 H          1 MOL1         0.0794
      82    H39     21.658352   22.743193   17.778102 H          1 MOL1         0.0794
      83    O20     21.324620   24.735012   18.292520 O.3        1 MOL1        -0.5486
      84    H40     22.281686   24.887676   18.457047 H          1 MOL1         0.3769
      85    C25     24.656024   17.644461   22.550693 C.3        1 MOL1         0.2972
      86    H41     25.227663   16.774624   22.897756 H          1 MOL1         0.0751
      87    O21     23.463427   17.245894   21.844697 O.3        1 MOL1        -0.3740
      88    C26     24.259330   18.531196   23.757761 C.3        1 MOL1         0.1003
      89    H42     25.191279   18.877241   24.223200 H          1 MOL1         0.0783
      90    O22     23.503136   17.792738   24.728451 O.3        1 MOL1        -0.5519
      91    H43     22.692035   17.450119   24.275184 H          1 MOL1         0.3769
      92    C27     23.468864   19.775871   23.297363 C.3        1 MOL1         0.1053
      93    H44     22.503068   19.433960   22.907337 H          1 MOL1         0.0783
      94    O23     23.263593   20.638369   24.420254 O.3        1 MOL1        -0.5519
      95    H45     22.981735   20.041521   25.148364 H          1 MOL1         0.3769
      96    C28     24.204752   20.541290   22.169644 C.3        1 MOL1         0.1018
      97    H46     25.017567   21.130554   22.614886 H          1 MOL1         0.0783
      98    C29     24.767621   19.596054   21.071607 C.3        1 MOL1         0.1043
      99    H47     23.916651   19.243948   20.476958 H          1 MOL1         0.0783
     100    O24     25.451556   18.460535   21.663226 O.3        1 MOL1        -0.3740
     101    C30     25.754043   20.292741   20.108309 C.3        1 MOL1         0.0138
     102    H48     25.221221   21.078135   19.555907 H          1 MOL1         0.0794
     103    H49     26.107242   19.558504   19.371923 H          1 MOL1         0.0794
     104    O25     26.860583   20.854337   20.819813 O.3        1 MOL1        -0.5486
     105    H50     27.278409   20.111835   21.310523 H          1 MOL1         0.3769
     106    C31     21.451866   13.990013   20.416017 C.3        1 MOL1         0.2972
     107    H51     21.060129   13.086024   19.932069 H          1 MOL1         0.0751
     108    O26     20.401658   14.800174   20.979196 O.3        1 MOL1        -0.3740
     109    C32     22.441261   13.626876   21.546432 C.3        1 MOL1         0.1003
     110    H52     23.278535   13.085286   21.087497 H          1 MOL1         0.0783
     111    O27     21.813545   12.783930   22.525952 O.3        1 MOL1        -0.5519
     112    H53     20.954542   13.212080   22.774124 H          1 MOL1         0.3769
     113    C33     23.006414   14.904552   22.213948 C.3        1 MOL1         0.1053
     114    H54     22.192512   15.359761   22.791136 H          1 MOL1         0.0783
     115    O28     24.070753   14.527554   23.093102 O.3        1 MOL1        -0.5519
     116    H55     23.699254   13.812155   23.654411 H          1 MOL1         0.3769
     117    C34     23.507000   15.961546   21.185480 C.3        1 MOL1         0.1018
     118    H56     24.527011   15.708860   20.866255 H          1 MOL1         0.0783
     119    C35     22.606690   16.088881   19.922383 C.3        1 MOL1         0.1043
     120    H57     21.731640   16.704927   20.168484 H          1 MOL1         0.0783
     121    O29     22.183887   14.782789   19.464263 O.3        1 MOL1        -0.3740
     122    C36     23.353580   16.745215   18.742508 C.3        1 MOL1         0.0138
     123    H58     24.171336   16.085845   18.421843 H          1 MOL1         0.0794
     124    H59     23.801231   17.689627   19.068977 H          1 MOL1         0.0794
     125    O30     22.450375   16.983421   17.661469 O.3        1 MOL1        -0.5486
     126    H60     22.014429   16.121864   17.477913 H          1 MOL1         0.3769
     127    C1      19.685005   19.775076   22.311375 C.3        1 MOL1        -0.1689
     128    H1      20.597848   20.274435   21.963033 H          1 MOL1         0.0830
     129    H2      18.877185   20.039357   21.619495 H          1 MOL1         0.0830
     130    C2      19.348029   20.216917   23.747011 C.3        1 MOL1        -0.1689
     131    H3      18.260631   20.294106   23.861766 H          1 MOL1         0.0830
     132    H4      19.781221   21.193390   23.998832 H          1 MOL1         0.0830
     133    C3      19.873533   19.098993   24.659434 C.3        1 MOL1        -0.1765
     134    H5      19.299745   19.032624   25.592357 H          1 MOL1         0.0830
     135    H6      20.921353   19.293084   24.915419 H          1 MOL1         0.0830
     136    C4      19.762764   17.813072   23.830874 C.3        1 MOL1         0.1214
     137    H7      18.766803   17.374937   23.980286 H          1 MOL1         0.0787
     138    C5      19.902460   18.246861   22.360128 C.3        1 MOL1        -0.1765
     139    H8      20.895712   17.993255   21.972291 H          1 MOL1         0.0830
     140    H9      19.163978   17.725819   21.738791 H          1 MOL1         0.0830
     141    O1      20.786034   16.898183   24.195787 O.3        1 MOL1        -0.5512
     142    H10     20.561637   16.573889   25.091188 H          1 MOL1         0.3776
@<TRIPOS>BOND
    1     1     2    1
    2     1     3    1
    3     1     4    1
    4     4     5    1
    5     4     6    1
    6     6     7    1
    7     4     8    1
    8     8     9    1
    9     8    10    1
   10    10    11    1
   11     8    12    1
   12    12    13    1
   13    12    14    1
   14    14    15    1
   15     1    16    1
   16    14    16    1
   17    14    17    1
   18    17    18    1
   19    17    19    1
   20    17    20    1
   21    20    21    1
   22    22    23    1
   23    22    24    1
   24    22    25    1
   25    25    26    1
   26    25    27    1
   27    27    28    1
   28    25    29    1
   29    29    30    1
   30    29    31    1
   31    31    32    1
   32     3    33    1
   33    29    33    1
   34    33    34    1
   35    33    35    1
   36    35    36    1
   37    22    37    1
   38    35    37    1
   39    35    38    1
   40    38    39    1
   41    38    40    1
   42    38    41    1
   43    41    42    1
   44    43    44    1
   45    43    45    1
   46    43    46    1
   47    46    47    1
   48    46    48    1
   49    48    49    1
   50    46    50    1
   51    50    51    1
   52    50    52    1
   53    52    53    1
   54    24    54    1
   55    50    54    1
   56    54    55    1
   57    54    56    1
   58    56    57    1
   59    43    58    1
   60    56    58    1
   61    56    59    1
   62    59    60    1
   63    59    61    1
   64    59    62    1
   65    62    63    1
   66    64    65    1
   67    64    66    1
   68    64    67    1
   69    67    68    1
   70    67    69    1
   71    69    70    1
   72    67    71    1
   73    71    72    1
   74    71    73    1
   75    73    74    1
   76    45    75    1
   77    71    75    1
   78    75    76    1
   79    75    77    1
   80    77    78    1
   81    64    79    1
   82    77    79    1
   83    77    80    1
   84    80    81    1
   85    80    82    1
   86    80    83    1
   87    83    84    1
   88    85    86    1
   89    85    87    1
   90    85    88    1
   91    88    89    1
   92    88    90    1
   93    90    91    1
   94    88    92    1
   95    92    93    1
   96    92    94    1
   97    94    95    1
   98    66    96    1
   99    92    96    1
  100    96    97    1
  101    96    98    1
  102    98    99    1
  103    85   100    1
  104    98   100    1
  105    98   101    1
  106   101   102    1
  107   101   103    1
  108   101   104    1
  109   104   105    1
  110   106   107    1
  111    12   108    1
  112   106   108    1
  113   106   109    1
  114   109   110    1
  115   109   111    1
  116   111   112    1
  117   109   113    1
  118   113   114    1
  119   113   115    1
  120   115   116    1
  121    87   117    1
  122   113   117    1
  123   117   118    1
  124   117   119    1
  125   119   120    1
  126   106   121    1
  127   119   121    1
  128   119   122    1
  129   122   123    1
  130   122   124    1
  131   122   125    1
  132   125   126    1
  133   127   128    1
  134   127   129    1
  135   127   130    1
  136   130   131    1
  137   130   132    1
  138   130   133    1
  139   133   134    1
  140   133   135    1
  141   133   136    1
  142   136   137    1
  143   127   138    1
  144   136   138    1
  145   138   139    1
  146   138   140    1
  147   136   141    1
  148   141   142    1
@<TRIPOS>SUBSTRUCTURE
       1 MOL1            1 RESIDUE      1      MOL     
       2 MOL1          142 RESIDUE      1      MOL     
@<SCITEGIC>MOL_PROPERTY
VM2 Rank
SciTegic.value.IntegerValue
1

@<SCITEGIC>MOL_PROPERTY
Conf_Id
SciTegic.value.IntegerValue
22426

@<SCITEGIC>MOL_PROPERTY
Probability
SciTegic.value.DoubleValue
1.35

@<SCITEGIC>MOL_PROPERTY
Sum Probability
SciTegic.value.DoubleValue
1.35

@<SCITEGIC>MOL_PROPERTY
Delta G
SciTegic.value.DoubleValue
0.000

@<SCITEGIC>MOL_PROPERTY
G
SciTegic.value.DoubleValue
549.364

@<SCITEGIC>MOL_PROPERTY
E
SciTegic.value.DoubleValue
365.041

@<SCITEGIC>MOL_PROPERTY
-TS
SciTegic.value.DoubleValue
184.323

@<SCITEGIC>MOL_PROPERTY
U+W
SciTegic.value.DoubleValue
239.847

@<SCITEGIC>MOL_PROPERTY
U
SciTegic.value.DoubleValue
272.924

@<SCITEGIC>MOL_PROPERTY
W
SciTegic.value.DoubleValue
-33.077

@<SCITEGIC>MOL_PROPERTY
W(PB)
SciTegic.value.DoubleValue
-39.202

@<SCITEGIC>MOL_PROPERTY
W(SA)
SciTegic.value.DoubleValue
6.125

@<SCITEGIC>MOL_PROPERTY
Valence
SciTegic.value.DoubleValue
158.222

@<SCITEGIC>MOL_PROPERTY
Coulomb
SciTegic.value.DoubleValue
139.347

@<SCITEGIC>MOL_PROPERTY
VdW
SciTegic.value.DoubleValue
-24.645

@<SCITEGIC>MOL_PROPERTY
VdW6
SciTegic.value.DoubleValue
-169.637

@<SCITEGIC>MOL_PROPERTY
VdW12
SciTegic.value.DoubleValue
144.992

@<SCITEGIC>MOL_PROPERTY
Bond
SciTegic.value.DoubleValue
4.314

@<SCITEGIC>MOL_PROPERTY
Angle
SciTegic.value.DoubleValue
12.260

@<SCITEGIC>MOL_PROPERTY
Pdih
SciTegic.value.DoubleValue
141.649

@<SCITEGIC>MOL_PROPERTY
Idih
SciTegic.value.DoubleValue
0.000

@<SCITEGIC>MOL_PROPERTY
Tether
SciTegic.value.DoubleValue
0.000

@<TRIPOS>MOLECULE
CD_guest-4_vm2_rndm.mol2 : vm2 host+ligand conformer 2
         142         148           2
SMALL
USER_CHARGES
 
@<TRIPOS>ATOM
       1    C1      16.210159   15.093533   21.039556 C.3        1 MOL1         0.2972
       2    H1      15.126503   14.944955   20.945764 H          1 MOL1         0.0751
       3    O1      16.540721   16.480252   21.258778 O.3        1 MOL1        -0.3740
       4    C2      16.793014   14.247704   22.201680 C.3        1 MOL1         0.1003
       5    H2      16.617247   13.192446   21.955414 H          1 MOL1         0.0783
       6    O2      16.150198   14.544981   23.450369 O.3        1 MOL1        -0.5519
       7    H3      16.237420   15.519734   23.604799 H          1 MOL1         0.3769
       8    C3      18.322250   14.461928   22.307760 C.3        1 MOL1         0.1053
       9    H4      18.502998   15.503111   22.600089 H          1 MOL1         0.0783
      10    O3      18.863423   13.578019   23.295187 O.3        1 MOL1        -0.5519
      11    H5      18.255642   13.649707   24.064423 H          1 MOL1         0.3769
      12    C4      19.019053   14.217268   20.947131 C.3        1 MOL1         0.1018
      13    H6      19.056316   13.133822   20.772591 H          1 MOL1         0.0783
      14    C5      18.295919   14.920656   19.763500 C.3        1 MOL1         0.1043
      15    H7      18.482076   16.000710   19.835584 H          1 MOL1         0.0783
      16    O4      16.870498   14.666420   19.829550 O.3        1 MOL1        -0.3740
      17    C6      18.787933   14.450765   18.376243 C.3        1 MOL1         0.0138
      18    H8      19.841690   14.731656   18.254393 H          1 MOL1         0.0794
      19    H9      18.218424   14.981491   17.601625 H          1 MOL1         0.0794
      20    O5      18.633408   13.036493   18.224376 O.3        1 MOL1        -0.5486
      21    H10     17.679319   12.847516   18.367361 H          1 MOL1         0.3769
      22    C7      14.917206   20.214461   21.937617 C.3        1 MOL1         0.2972
      23    H11     14.288216   21.084141   22.166796 H          1 MOL1         0.0751
      24    O6      16.169083   20.604308   21.336812 O.3        1 MOL1        -0.3740
      25    C8      15.206172   19.400634   23.224835 C.3        1 MOL1         0.1003
      26    H12     14.239622   19.046155   23.606019 H          1 MOL1         0.0783
      27    O7      15.840596   20.202137   24.233579 O.3        1 MOL1        -0.5519
      28    H13     15.774930   21.143187   23.941532 H          1 MOL1         0.3769
      29    C9      16.078314   18.165675   22.904317 C.3        1 MOL1         0.1053
      30    H14     17.066726   18.523026   22.591718 H          1 MOL1         0.0783
      31    O8      16.202572   17.368732   24.085291 O.3        1 MOL1        -0.5519
      32    H15     16.358294   18.022555   24.803405 H          1 MOL1         0.3769
      33    C10     15.480611   17.324450   21.748983 C.3        1 MOL1         0.1018
      34    H16     14.639027   16.739789   22.143994 H          1 MOL1         0.0783
      35    C11     15.008297   18.196897   20.550346 C.3        1 MOL1         0.1043
      36    H17     15.898403   18.554972   20.016227 H          1 MOL1         0.0783
      37    O9      14.237026   19.332000   21.019717 O.3        1 MOL1        -0.3740
      38    C12     14.137512   17.421819   19.536377 C.3        1 MOL1         0.0138
      39    H18     14.741281   16.625918   19.080379 H          1 MOL1         0.0794
      40    H19     13.838664   18.106347   18.731253 H          1 MOL1         0.0794
      41    O10     12.981741   16.863285   20.167958 O.3        1 MOL1        -0.5486
      42    H20     12.498771   17.616987   20.574585 H          1 MOL1         0.3769
      43    C13     18.424156   24.044708   20.728343 C.3        1 MOL1         0.2972
      44    H21     18.789242   25.039117   20.441795 H          1 MOL1         0.0751
      45    O11     19.489896   23.189550   21.188167 O.3        1 MOL1        -0.3740
      46    C14     17.388082   24.159313   21.872581 C.3        1 MOL1         0.1003
      47    H22     16.556534   24.772349   21.501304 H          1 MOL1         0.0783
      48    O12     17.963314   24.795878   23.024906 O.3        1 MOL1        -0.5519
      49    H23     18.899188   24.479682   23.100946 H          1 MOL1         0.3769
      50    C15     16.822017   22.767891   22.249238 C.3        1 MOL1         0.1053
      51    H24     17.632050   22.184590   22.705141 H          1 MOL1         0.0783
      52    O13     15.762483   22.947635   23.194798 O.3        1 MOL1        -0.5519
      53    H25     16.088212   23.647987   23.805457 H          1 MOL1         0.3769
      54    C16     16.320830   21.996548   20.995665 C.3        1 MOL1         0.1018
      55    H26     15.371744   22.427579   20.650038 H          1 MOL1         0.0783
      56    C17     17.342577   22.043520   19.828091 C.3        1 MOL1         0.1043
      57    H27     18.204106   21.410159   20.078022 H          1 MOL1         0.0783
      58    O14     17.767356   23.410624   19.611721 O.3        1 MOL1        -0.3740
      59    C18     16.730855   21.532869   18.506864 C.3        1 MOL1         0.0138
      60    H28     15.886865   22.176628   18.225063 H          1 MOL1         0.0794
      61    H29     16.340455   20.517792   18.657479 H          1 MOL1         0.0794
      62    O15     17.721967   21.527055   17.477458 O.3        1 MOL1        -0.5486
      63    H30     18.081977   22.440819   17.443872 H          1 MOL1         0.3769
      64    C19     23.614511   22.796024   21.303426 C.3        1 MOL1         0.2972
      65    H31     24.702738   22.921584   21.231853 H          1 MOL1         0.0751
      66    O16     23.253770   21.428690   21.584238 O.3        1 MOL1        -0.3740
      67    C20     23.015710   23.709617   22.404743 C.3        1 MOL1         0.1003
      68    H32     23.218090   24.748017   22.111737 H          1 MOL1         0.0783
      69    O17     23.617648   23.463254   23.684504 O.3        1 MOL1        -0.5519
      70    H33     23.509978   22.498265   23.882367 H          1 MOL1         0.3769
      71    C21     21.480376   23.526971   22.477767 C.3        1 MOL1         0.1053
      72    H34     21.275157   22.503580   22.814355 H          1 MOL1         0.0783
      73    O18     20.927777   24.462840   23.408975 O.3        1 MOL1        -0.5519
      74    H35     21.522656   24.427340   24.190950 H          1 MOL1         0.3769
      75    C22     20.825633   23.720116   21.087423 C.3        1 MOL1         0.1018
      76    H36     20.826966   24.792678   20.853080 H          1 MOL1         0.0783
      77    C23     21.564435   22.939185   19.963886 C.3        1 MOL1         0.1043
      78    H37     21.354340   21.868600   20.086185 H          1 MOL1         0.0783
      79    O19     22.993142   23.169595   20.055307 O.3        1 MOL1        -0.3740
      80    C24     21.119361   23.345568   18.541673 C.3        1 MOL1         0.0138
      81    H38     20.058791   23.097122   18.413201 H          1 MOL1         0.0794
      82    H39     21.683912   22.750157   17.811758 H          1 MOL1         0.0794
      83    O20     21.331102   24.741962   18.312921 O.3        1 MOL1        -0.5486
      84    H40     22.286241   24.904889   18.478786 H          1 MOL1         0.3769
      85    C25     24.750482   17.686986   22.466568 C.3        1 MOL1         0.2972
      86    H41     25.341005   16.810565   22.762521 H          1 MOL1         0.0751
      87    O21     23.504513   17.301206   21.851039 O.3        1 MOL1        -0.3740
      88    C26     24.459170   18.569437   23.705777 C.3        1 MOL1         0.1003
      89    H42     25.427812   18.912394   24.091762 H          1 MOL1         0.0783
      90    O22     23.787205   17.829770   24.734617 O.3        1 MOL1        -0.5519
      91    H43     22.914604   17.543975   24.364176 H          1 MOL1         0.3769
      92    C27     23.635109   19.815804   23.315668 C.3        1 MOL1         0.1053
      93    H44     22.640965   19.477749   22.997157 H          1 MOL1         0.0783
      94    O23     23.520469   20.671022   24.457139 O.3        1 MOL1        -0.5519
      95    H45     23.262801   20.073190   25.194085 H          1 MOL1         0.3769
      96    C28     24.283775   20.587025   22.139935 C.3        1 MOL1         0.1018
      97    H46     25.129739   21.170730   22.526916 H          1 MOL1         0.0783
      98    C29     24.758508   19.648378   20.995191 C.3        1 MOL1         0.1043
      99    H47     23.864016   19.304988   20.462001 H          1 MOL1         0.0783
     100    O24     25.479408   18.504446   21.524624 O.3        1 MOL1        -0.3740
     101    C30     25.674262   20.349821   19.967707 C.3        1 MOL1         0.0138
     102    H48     25.107115   21.145172   19.466024 H          1 MOL1         0.0794
     103    H49     25.965392   19.621916   19.198614 H          1 MOL1         0.0794
     104    O25     26.835503   20.895739   20.599926 O.3        1 MOL1        -0.5486
     105    H50     27.282763   20.144877   21.050311 H          1 MOL1         0.3769
     106    C31     21.418817   13.991272   20.544823 C.3        1 MOL1         0.2972
     107    H51     21.061932   13.058947   20.088517 H          1 MOL1         0.0751
     108    O26     20.334569   14.791525   21.053845 O.3        1 MOL1        -0.3740
     109    C32     22.382658   13.692381   21.716517 C.3        1 MOL1         0.1003
     110    H52     23.230461   13.128409   21.306478 H          1 MOL1         0.0783
     111    O27     21.731530   12.899856   22.723024 O.3        1 MOL1        -0.5519
     112    H53     20.844614   13.308594   22.891311 H          1 MOL1         0.3769
     113    C33     22.934851   15.002734   22.330774 C.3        1 MOL1         0.1053
     114    H54     22.110282   15.498680   22.859992 H          1 MOL1         0.0783
     115    O28     23.976122   14.668012   23.253368 O.3        1 MOL1        -0.5519
     116    H55     23.585063   13.992653   23.849539 H          1 MOL1         0.3769
     117    C34     23.471331   15.987969   21.252983 C.3        1 MOL1         0.1018
     118    H56     24.470885   15.668915   20.928486 H          1 MOL1         0.0783
     119    C35     22.553768   16.089871   20.002729 C.3        1 MOL1         0.1043
     120    H57     21.673923   16.698124   20.251435 H          1 MOL1         0.0783
     121    O29     22.149116   14.767370   19.576987 O.3        1 MOL1        -0.3740
     122    C36     23.277786   16.734873   18.802555 C.3        1 MOL1         0.0138
     123    H58     24.108777   16.087473   18.491740 H          1 MOL1         0.0794
     124    H59     23.704844   17.696987   19.104244 H          1 MOL1         0.0794
     125    O30     22.362346   16.926673   17.722543 O.3        1 MOL1        -0.5486
     126    H60     21.951758   16.049420   17.556833 H          1 MOL1         0.3769
     127    C1      19.716509   19.849496   22.375981 C.3        1 MOL1        -0.1689
     128    H1      20.417773   20.368577   21.710262 H          1 MOL1         0.0830
     129    H2      18.700283   20.044858   22.014664 H          1 MOL1         0.0830
     130    C2      19.842911   20.327006   23.830539 C.3        1 MOL1        -0.1689
     131    H3      19.240455   21.221445   24.034334 H          1 MOL1         0.0830
     132    H4      20.887692   20.567420   24.054538 H          1 MOL1         0.0830
     133    C3      19.407123   19.125658   24.682065 C.3        1 MOL1        -0.1765
     134    H5      18.321617   19.161768   24.830223 H          1 MOL1         0.0830
     135    H6      19.879024   19.138192   25.672949 H          1 MOL1         0.0830
     136    C4      19.766744   17.867656   23.871034 C.3        1 MOL1         0.1214
     137    H7      18.943033   17.144392   23.933050 H          1 MOL1         0.0787
     138    C5      19.969892   18.328377   22.412399 C.3        1 MOL1        -0.1765
     139    H8      20.991775   18.109518   22.082564 H          1 MOL1         0.0830
     140    H9      19.287417   17.799836   21.734959 H          1 MOL1         0.0830
     141    O1      20.966992   17.294913   24.375845 O.3        1 MOL1        -0.5512
     142    H10     20.766056   16.998599   25.286197 H          1 MOL1         0.3776
@<TRIPOS>BOND
    1     1     2    1
    2     1     3    1
    3     1     4    1
    4     4     5    1
    5     4     6    1
    6     6     7    1
    7     4     8    1
    8     8     9    1
    9     8    10    1
   10    10    11    1
   11     8    12    1
   12    12    13    1
   13    12    14    1
   14    14    15    1
   15     1    16    1
   16    14    16    1
   17    14    17    1
   18    17    18    1
   19    17    19    1
   20    17    20    1
   21    20    21    1
   22    22    23    1
   23    22    24    1
   24    22    25    1
   25    25    26    1
   26    25    27    1
   27    27    28    1
   28    25    29    1
   29    29    30    1
   30    29    31    1
   31    31    32    1
   32     3    33    1
   33    29    33    1
   34    33    34    1
   35    33    35    1
   36    35    36    1
   37    22    37    1
   38    35    37    1
   39    35    38    1
   40    38    39    1
   41    38    40    1
   42    38    41    1
   43    41    42    1
   44    43    44    1
   45    43    45    1
   46    43    46    1
   47    46    47    1
   48    46    48    1
   49    48    49    1
   50    46    50    1
   51    50    51    1
   52    50    52    1
   53    52    53    1
   54    24    54    1
   55    50    54    1
   56    54    55    1
   57    54    56    1
   58    56    57    1
   59    43    58    1
   60    56    58    1
   61    56    59    1
   62    59    60    1
   63    59    61    1
   64    59    62    1
   65    62    63    1
   66    64    65    1
   67    64    66    1
   68    64    67    1
   69    67    68    1
   70    67    69    1
   71    69    70    1
   72    67    71    1
   73    71    72    1
   74    71    73    1
   75    73    74    1
   76    45    75    1
   77    71    75    1
   78    75    76    1
   79    75    77    1
   80    77    78    1
   81    64    79    1
   82    77    79    1
   83    77    80    1
   84    80    81    1
   85    80    82    1
   86    80    83    1
   87    83    84    1
   88    85    86    1
   89    85    87    1
   90    85    88    1
   91    88    89    1
   92    88    90    1
   93    90    91    1
   94    88    92    1
   95    92    93    1
   96    92    94    1
   97    94    95    1
   98    66    96    1
   99    92    96    1
  100    96    97    1
  101    96    98    1
  102    98    99    1
  103    85   100    1
  104    98   100    1
  105    98   101    1
  106   101   102    1
  107   101   103    1
  108   101   104    1
  109   104   105    1
  110   106   107    1
  111    12   108    1
  112   106   108    1
  113   106   109    1
  114   109   110    1
  115   109   111    1
  116   111   112    1
  117   109   113    1
  118   113   114    1
  119   113   115    1
  120   115   116    1
  121    87   117    1
  122   113   117    1
  123   117   118    1
  124   117   119    1
  125   119   120    1
  126   106   121    1
  127   119   121    1
  128   119   122    1
  129   122   123    1
  130   122   124    1
  131   122   125    1
  132   125   126    1
  133   127   128    1
  134   127   129    1
  135   127   130    1
  136   130   131    1
  137   130   132    1
  138   130   133    1
  139   133   134    1
  140   133   135    1
  141   133   136    1
  142   136   137    1
  143   127   138    1
  144   136   138    1
  145   138   139    1
  146   138   140    1
  147   136   141    1
  148   141   142    1
@<TRIPOS>SUBSTRUCTURE
       1 MOL1            1 RESIDUE      1      MOL     
       2 MOL1          142 RESIDUE      1      MOL     
@<SCITEGIC>MOL_PROPERTY
VM2 Rank
SciTegic.value.IntegerValue
2

@<SCITEGIC>MOL_PROPERTY
Conf_Id
SciTegic.value.IntegerValue
19962

@<SCITEGIC>MOL_PROPERTY
Probability
SciTegic.value.DoubleValue
1.23

@<SCITEGIC>MOL_PROPERTY
Sum Probability
SciTegic.value.DoubleValue
2.58

@<SCITEGIC>MOL_PROPERTY
Delta G
SciTegic.value.DoubleValue
0.058

@<SCITEGIC>MOL_PROPERTY
G
SciTegic.value.DoubleValue
549.421

@<SCITEGIC>MOL_PROPERTY
E
SciTegic.value.DoubleValue
365.203

@<SCITEGIC>MOL_PROPERTY
-TS
SciTegic.value.DoubleValue
184.218

@<SCITEGIC>MOL_PROPERTY
U+W
SciTegic.value.DoubleValue
240.009

@<SCITEGIC>MOL_PROPERTY
U
SciTegic.value.DoubleValue
273.184

@<SCITEGIC>MOL_PROPERTY
W
SciTegic.value.DoubleValue
-33.176

@<SCITEGIC>MOL_PROPERTY
W(PB)
SciTegic.value.DoubleValue
-39.305

@<SCITEGIC>MOL_PROPERTY
W(SA)
SciTegic.value.DoubleValue
6.130

@<SCITEGIC>MOL_PROPERTY
Valence
SciTegic.value.DoubleValue
157.440

@<SCITEGIC>MOL_PROPERTY
Coulomb
SciTegic.value.DoubleValue
139.640

@<SCITEGIC>MOL_PROPERTY
VdW
SciTegic.value.DoubleValue
-23.896

@<SCITEGIC>MOL_PROPERTY
VdW6
SciTegic.value.DoubleValue
-168.441

@<SCITEGIC>MOL_PROPERTY
VdW12
SciTegic.value.DoubleValue
144.545

@<SCITEGIC>MOL_PROPERTY
Bond
SciTegic.value.DoubleValue
4.254

@<SCITEGIC>MOL_PROPERTY
Angle
SciTegic.value.DoubleValue
12.302

@<SCITEGIC>MOL_PROPERTY
Pdih
SciTegic.value.DoubleValue
140.885

@<SCITEGIC>MOL_PROPERTY
Idih
SciTegic.value.DoubleValue
0.000

@<SCITEGIC>MOL_PROPERTY
Tether
SciTegic.value.DoubleValue
0.000

@<TRIPOS>MOLECULE
CD_guest-4_vm2_rndm.mol2 : vm2 host+ligand conformer 3
         142         148           2
SMALL
USER_CHARGES
 
@<TRIPOS>ATOM
       1    C1      16.169963   15.187166   20.997940 C.3        1 MOL1         0.2972
       2    H1      15.083843   15.068458   20.891392 H          1 MOL1         0.0751
       3    O1      16.529980   16.555494   21.277895 O.3        1 MOL1        -0.3740
       4    C2      16.728784   14.271737   22.119065 C.3        1 MOL1         0.1003
       5    H2      16.541573   13.233984   21.813837 H          1 MOL1         0.0783
       6    O2      16.078357   14.506856   23.376506 O.3        1 MOL1        -0.5519
       7    H3      16.216249   15.460894   23.605384 H          1 MOL1         0.3769
       8    C3      18.259567   14.459992   22.248047 C.3        1 MOL1         0.1053
       9    H4      18.448678   15.486680   22.585181 H          1 MOL1         0.0783
      10    O3      18.779206   13.531293   23.204933 O.3        1 MOL1        -0.5519
      11    H5      18.152676   13.566174   23.961871 H          1 MOL1         0.3769
      12    C4      18.962108   14.256107   20.882287 C.3        1 MOL1         0.1018
      13    H6      18.969510   13.181078   20.659347 H          1 MOL1         0.0783
      14    C5      18.261859   15.024804   19.726017 C.3        1 MOL1         0.1043
      15    H7      18.473216   16.096227   19.842697 H          1 MOL1         0.0783
      16    O4      16.829316   14.801937   19.773027 O.3        1 MOL1        -0.3740
      17    C6      18.751792   14.596284   18.324733 C.3        1 MOL1         0.0138
      18    H8      19.819134   14.832935   18.227781 H          1 MOL1         0.0794
      19    H9      18.217088   15.186461   17.568575 H          1 MOL1         0.0794
      20    O5      18.534157   13.198792   18.107785 O.3        1 MOL1        -0.5486
      21    H10     17.572382   13.047215   18.243852 H          1 MOL1         0.3769
      22    C7      15.057890   20.284059   22.258901 C.3        1 MOL1         0.2972
      23    H11     14.471490   21.153332   22.581534 H          1 MOL1         0.0751
      24    O6      16.293680   20.682060   21.630640 O.3        1 MOL1        -0.3740
      25    C8      15.376167   19.380647   23.476565 C.3        1 MOL1         0.1003
      26    H12     14.415900   19.033349   23.879304 H          1 MOL1         0.0783
      27    O7      16.073862   20.102641   24.501992 O.3        1 MOL1        -0.5519
      28    H13     16.913901   20.446342   24.105957 H          1 MOL1         0.3769
      29    C9      16.187609   18.137880   23.048688 C.3        1 MOL1         0.1053
      30    H14     17.175808   18.479225   22.718941 H          1 MOL1         0.0783
      31    O8      16.323807   17.263461   24.172558 O.3        1 MOL1        -0.5519
      32    H15     16.560253   17.852580   24.922860 H          1 MOL1         0.3769
      33    C10     15.514192   17.388621   21.871859 C.3        1 MOL1         0.1018
      34    H16     14.673991   16.799495   22.263194 H          1 MOL1         0.0783
      35    C11     15.020139   18.348958   20.753839 C.3        1 MOL1         0.1043
      36    H17     15.905143   18.701503   20.211550 H          1 MOL1         0.0783
      37    O9      14.310910   19.483475   21.316779 O.3        1 MOL1        -0.3740
      38    C12     14.085538   17.667409   19.729970 C.3        1 MOL1         0.0138
      39    H18     14.642942   16.880869   19.204029 H          1 MOL1         0.0794
      40    H19     13.781787   18.409569   18.979610 H          1 MOL1         0.0794
      41    O10     12.934963   17.110871   20.372297 O.3        1 MOL1        -0.5486
      42    H20     12.496475   17.853616   20.844274 H          1 MOL1         0.3769
      43    C13     18.405557   23.962299   20.403299 C.3        1 MOL1         0.2972
      44    H21     18.828115   24.873821   19.961152 H          1 MOL1         0.0751
      45    O11     19.415817   23.146668   21.027872 O.3        1 MOL1        -0.3740
      46    C14     17.336213   24.306441   21.464956 C.3        1 MOL1         0.1003
      47    H22     16.532823   24.853331   20.954608 H          1 MOL1         0.0783
      48    O12     17.888285   25.136027   22.499846 O.3        1 MOL1        -0.5519
      49    H23     18.722045   24.699924   22.812084 H          1 MOL1         0.3769
      50    C15     16.727429   23.018030   22.070923 C.3        1 MOL1         0.1053
      51    H24     17.498752   22.553691   22.697482 H          1 MOL1         0.0783
      52    O13     15.603054   23.382337   22.877689 O.3        1 MOL1        -0.5519
      53    H25     15.932717   24.090614   23.473163 H          1 MOL1         0.3769
      54    C16     16.302708   21.977685   20.992204 C.3        1 MOL1         0.1018
      55    H26     15.310300   22.238365   20.600661 H          1 MOL1         0.0783
      56    C17     17.296411   21.867762   19.799543 C.3        1 MOL1         0.1043
      57    H27     18.152843   21.252033   20.104524 H          1 MOL1         0.0783
      58    O14     17.747191   23.180770   19.390145 O.3        1 MOL1        -0.3740
      59    C18     16.645075   21.221177   18.559299 C.3        1 MOL1         0.0138
      60    H28     15.850629   21.880225   18.184033 H          1 MOL1         0.0794
      61    H29     16.179295   20.271089   18.841079 H          1 MOL1         0.0794
      62    O15     17.629679   20.998489   17.548182 O.3        1 MOL1        -0.5486
      63    H30     18.075313   21.863438   17.409019 H          1 MOL1         0.3769
      64    C19     23.501633   22.841891   21.592110 C.3        1 MOL1         0.2972
      65    H31     24.585264   23.004476   21.658202 H          1 MOL1         0.0751
      66    O16     23.161693   21.446441   21.721582 O.3        1 MOL1        -0.3740
      67    C20     22.755604   23.631048   22.698433 C.3        1 MOL1         0.1003
      68    H32     22.971867   24.695749   22.541414 H          1 MOL1         0.0783
      69    O17     23.208954   23.250931   24.007272 O.3        1 MOL1        -0.5519
      70    H33     23.193529   22.261234   24.053768 H          1 MOL1         0.3769
      71    C21     21.224663   23.435209   22.574052 C.3        1 MOL1         0.1053
      72    H34     20.992862   22.390022   22.809452 H          1 MOL1         0.0783
      73    O18     20.558587   24.300185   23.500006 O.3        1 MOL1        -0.5519
      74    H35     21.026594   24.168586   24.354027 H          1 MOL1         0.3769
      75    C22     20.728843   23.725169   21.135694 C.3        1 MOL1         0.1018
      76    H36     20.712008   24.813365   20.989714 H          1 MOL1         0.0783
      77    C23     21.613007   23.055391   20.046928 C.3        1 MOL1         0.1043
      78    H37     21.425105   21.973462   20.064468 H          1 MOL1         0.0783
      79    O19     23.012421   23.310462   20.318028 O.3        1 MOL1        -0.3740
      80    C24     21.313896   23.560669   18.617700 C.3        1 MOL1         0.0138
      81    H38     20.287450   23.282187   18.345910 H          1 MOL1         0.0794
      82    H39     21.986531   23.050803   17.915133 H          1 MOL1         0.0794
      83    O20     21.481427   24.978523   18.524883 O.3        1 MOL1        -0.5486
      84    H40     22.404658   25.164834   18.806727 H          1 MOL1         0.3769
      85    C25     24.830714   17.684179   22.152111 C.3        1 MOL1         0.2972
      86    H41     25.473986   16.812591   22.329213 H          1 MOL1         0.0751
      87    O21     23.582691   17.309289   21.532648 O.3        1 MOL1        -0.3740
      88    C26     24.536408   18.417173   23.485848 C.3        1 MOL1         0.1003
      89    H42     25.497502   18.778100   23.874727 H          1 MOL1         0.0783
      90    O22     23.942052   17.543703   24.458337 O.3        1 MOL1        -0.5519
      91    H43     23.936179   16.635098   24.069938 H          1 MOL1         0.3769
      92    C27     23.630825   19.645084   23.237805 C.3        1 MOL1         0.1053
      93    H44     22.655706   19.284058   22.889035 H          1 MOL1         0.0783
      94    O23     23.473455   20.365748   24.463262 O.3        1 MOL1        -0.5519
      95    H45     23.312399   19.667502   25.137336 H          1 MOL1         0.3769
      96    C28     24.223525   20.569213   22.146106 C.3        1 MOL1         0.1018
      97    H46     25.063524   21.123988   22.584923 H          1 MOL1         0.0783
      98    C29     24.702922   19.782803   20.891794 C.3        1 MOL1         0.1043
      99    H47     23.816433   19.446483   20.338034 H          1 MOL1         0.0783
     100    O24     25.492624   18.631708   21.286999 O.3        1 MOL1        -0.3740
     101    C30     25.562255   20.632412   19.929090 C.3        1 MOL1         0.0138
     102    H48     24.949447   21.450103   19.527231 H          1 MOL1         0.0794
     103    H49     25.866303   20.005083   19.080434 H          1 MOL1         0.0794
     104    O25     26.713826   21.160136   20.594188 O.3        1 MOL1        -0.5486
     105    H50     27.204976   20.385876   20.949017 H          1 MOL1         0.3769
     106    C31     21.370492   13.937389   20.572709 C.3        1 MOL1         0.2972
     107    H51     21.005004   12.968281   20.209897 H          1 MOL1         0.0751
     108    O26     20.294221   14.789077   21.016160 O.3        1 MOL1        -0.3740
     109    C32     22.340096   13.740434   21.763525 C.3        1 MOL1         0.1003
     110    H52     23.190092   13.147945   21.400742 H          1 MOL1         0.0783
     111    O27     21.699719   13.034865   22.838611 O.3        1 MOL1        -0.5519
     112    H53     20.778186   13.390104   22.919700 H          1 MOL1         0.3769
     113    C33     22.885256   15.102182   22.258522 C.3        1 MOL1         0.1053
     114    H54     22.047037   15.662536   22.692716 H          1 MOL1         0.0783
     115    O28     23.879968   14.865614   23.260157 O.3        1 MOL1        -0.5519
     116    H55     23.514351   14.134458   23.808762 H          1 MOL1         0.3769
     117    C34     23.473170   15.941250   21.090482 C.3        1 MOL1         0.1018
     118    H56     24.451020   15.534628   20.800062 H          1 MOL1         0.0783
     119    C35     22.547387   15.956746   19.842231 C.3        1 MOL1         0.1043
     120    H57     21.678873   16.591745   20.054432 H          1 MOL1         0.0783
     121    O29     22.099004   14.615983   19.529236 O.3        1 MOL1        -0.3740
     122    C36     23.246143   16.521628   18.585577 C.3        1 MOL1         0.0138
     123    H58     23.585235   17.545240   18.792574 H          1 MOL1         0.0794
     124    H59     22.513934   16.575147   17.768929 H          1 MOL1         0.0794
     125    O30     24.355252   15.703239   18.202634 O.3        1 MOL1        -0.5486
     126    H60     24.002027   14.789274   18.120237 H          1 MOL1         0.3769
     127    C1      20.030037   18.147340   22.310309 C.3        1 MOL1        -0.1689
     128    H1      19.143948   17.657433   21.887275 H          1 MOL1         0.0830
     129    H2      20.884927   17.895910   21.672857 H          1 MOL1         0.0830
     130    C2      20.266024   17.675082   23.756504 C.3        1 MOL1        -0.1689
     131    H3      21.342693   17.584805   23.941842 H          1 MOL1         0.0830
     132    H4      19.809202   16.698146   23.959849 H          1 MOL1         0.0830
     133    C3      19.689225   18.779882   24.654056 C.3        1 MOL1        -0.1765
     134    H5      20.201942   18.825025   25.623108 H          1 MOL1         0.0830
     135    H6      18.626007   18.588689   24.838388 H          1 MOL1         0.0830
     136    C4      19.860594   20.080063   23.858969 C.3        1 MOL1         0.1214
     137    H7      20.847913   20.507445   24.079792 H          1 MOL1         0.0787
     138    C5      19.811567   19.674672   22.374591 C.3        1 MOL1        -0.1765
     139    H8      18.843575   19.936737   21.932579 H          1 MOL1         0.0830
     140    H9      20.586359   20.206641   21.809127 H          1 MOL1         0.0830
     141    O1      18.821870   20.996095   24.174279 O.3        1 MOL1        -0.5512
     142    H10     18.988705   21.300925   25.088869 H          1 MOL1         0.3776
@<TRIPOS>BOND
    1     1     2    1
    2     1     3    1
    3     1     4    1
    4     4     5    1
    5     4     6    1
    6     6     7    1
    7     4     8    1
    8     8     9    1
    9     8    10    1
   10    10    11    1
   11     8    12    1
   12    12    13    1
   13    12    14    1
   14    14    15    1
   15     1    16    1
   16    14    16    1
   17    14    17    1
   18    17    18    1
   19    17    19    1
   20    17    20    1
   21    20    21    1
   22    22    23    1
   23    22    24    1
   24    22    25    1
   25    25    26    1
   26    25    27    1
   27    27    28    1
   28    25    29    1
   29    29    30    1
   30    29    31    1
   31    31    32    1
   32     3    33    1
   33    29    33    1
   34    33    34    1
   35    33    35    1
   36    35    36    1
   37    22    37    1
   38    35    37    1
   39    35    38    1
   40    38    39    1
   41    38    40    1
   42    38    41    1
   43    41    42    1
   44    43    44    1
   45    43    45    1
   46    43    46    1
   47    46    47    1
   48    46    48    1
   49    48    49    1
   50    46    50    1
   51    50    51    1
   52    50    52    1
   53    52    53    1
   54    24    54    1
   55    50    54    1
   56    54    55    1
   57    54    56    1
   58    56    57    1
   59    43    58    1
   60    56    58    1
   61    56    59    1
   62    59    60    1
   63    59    61    1
   64    59    62    1
   65    62    63    1
   66    64    65    1
   67    64    66    1
   68    64    67    1
   69    67    68    1
   70    67    69    1
   71    69    70    1
   72    67    71    1
   73    71    72    1
   74    71    73    1
   75    73    74    1
   76    45    75    1
   77    71    75    1
   78    75    76    1
   79    75    77    1
   80    77    78    1
   81    64    79    1
   82    77    79    1
   83    77    80    1
   84    80    81    1
   85    80    82    1
   86    80    83    1
   87    83    84    1
   88    85    86    1
   89    85    87    1
   90    85    88    1
   91    88    89    1
   92    88    90    1
   93    90    91    1
   94    88    92    1
   95    92    93    1
   96    92    94    1
   97    94    95    1
   98    66    96    1
   99    92    96    1
  100    96    97    1
  101    96    98    1
  102    98    99    1
  103    85   100    1
  104    98   100    1
  105    98   101    1
  106   101   102    1
  107   101   103    1
  108   101   104    1
  109   104   105    1
  110   106   107    1
  111    12   108    1
  112   106   108    1
  113   106   109    1
  114   109   110    1
  115   109   111    1
  116   111   112    1
  117   109   113    1
  118   113   114    1
  119   113   115    1
  120   115   116    1
  121    87   117    1
  122   113   117    1
  123   117   118    1
  124   117   119    1
  125   119   120    1
  126   106   121    1
  127   119   121    1
  128   119   122    1
  129   122   123    1
  130   122   124    1
  131   122   125    1
  132   125   126    1
  133   127   128    1
  134   127   129    1
  135   127   130    1
  136   130   131    1
  137   130   132    1
  138   130   133    1
  139   133   134    1
  140   133   135    1
  141   133   136    1
  142   136   137    1
  143   127   138    1
  144   136   138    1
  145   138   139    1
  146   138   140    1
  147   136   141    1
  148   141   142    1
@<TRIPOS>SUBSTRUCTURE
       1 MOL1            1 RESIDUE      1      MOL     
       2 MOL1          142 RESIDUE      1      MOL     
@<SCITEGIC>MOL_PROPERTY
VM2 Rank
SciTegic.value.IntegerValue
3

@<SCITEGIC>MOL_PROPERTY
Conf_Id
SciTegic.value.IntegerValue
14618

@<SCITEGIC>MOL_PROPERTY
Probability
SciTegic.value.DoubleValue
1.07

@<SCITEGIC>MOL_PROPERTY
Sum Probability
SciTegic.value.DoubleValue
3.65

@<SCITEGIC>MOL_PROPERTY
Delta G
SciTegic.value.DoubleValue
0.138

@<SCITEGIC>MOL_PROPERTY
G
SciTegic.value.DoubleValue
549.501

@<SCITEGIC>MOL_PROPERTY
E
SciTegic.value.DoubleValue
365.007

@<SCITEGIC>MOL_PROPERTY
-TS
SciTegic.value.DoubleValue
184.494

@<SCITEGIC>MOL_PROPERTY
U+W
SciTegic.value.DoubleValue
239.813

@<SCITEGIC>MOL_PROPERTY
U
SciTegic.value.DoubleValue
272.864

@<SCITEGIC>MOL_PROPERTY
W
SciTegic.value.DoubleValue
-33.051

@<SCITEGIC>MOL_PROPERTY
W(PB)
SciTegic.value.DoubleValue
-39.181

@<SCITEGIC>MOL_PROPERTY
W(SA)
SciTegic.value.DoubleValue
6.130

@<SCITEGIC>MOL_PROPERTY
Valence
SciTegic.value.DoubleValue
158.141

@<SCITEGIC>MOL_PROPERTY
Coulomb
SciTegic.value.DoubleValue
138.835

@<SCITEGIC>MOL_PROPERTY
VdW
SciTegic.value.DoubleValue
-24.112

@<SCITEGIC>MOL_PROPERTY
VdW6
SciTegic.value.DoubleValue
-169.735

@<SCITEGIC>MOL_PROPERTY
VdW12
SciTegic.value.DoubleValue
145.623

@<SCITEGIC>MOL_PROPERTY
Bond
SciTegic.value.DoubleValue
4.357

@<SCITEGIC>MOL_PROPERTY
Angle
SciTegic.value.DoubleValue
12.367

@<SCITEGIC>MOL_PROPERTY
Pdih
SciTegic.value.DoubleValue
141.418

@<SCITEGIC>MOL_PROPERTY
Idih
SciTegic.value.DoubleValue
0.000

@<SCITEGIC>MOL_PROPERTY
Tether
SciTegic.value.DoubleValue
0.000

@<TRIPOS>MOLECULE
CD_guest-4_vm2_rndm.mol2 : vm2 host+ligand conformer 4
         142         148           2
SMALL
USER_CHARGES
 
@<TRIPOS>ATOM
       1    C1      16.219961   15.069487   21.078031 C.3        1 MOL1         0.2972
       2    H1      15.135250   14.918884   21.001217 H          1 MOL1         0.0751
       3    O1      16.553200   16.458908   21.274617 O.3        1 MOL1        -0.3740
       4    C2      16.819310   14.241509   22.244239 C.3        1 MOL1         0.1003
       5    H2      16.641934   13.182420   22.016264 H          1 MOL1         0.0783
       6    O2      16.192497   14.557666   23.496551 O.3        1 MOL1        -0.5519
       7    H3      16.267854   15.536701   23.628619 H          1 MOL1         0.3769
       8    C3      18.349432   14.459685   22.327162 C.3        1 MOL1         0.1053
       9    H4      18.531384   15.504403   22.604808 H          1 MOL1         0.0783
      10    O3      18.905485   13.589038   23.318045 O.3        1 MOL1        -0.5519
      11    H5      18.309282   13.671052   24.095250 H          1 MOL1         0.3769
      12    C4      19.030929   14.202012   20.961151 C.3        1 MOL1         0.1018
      13    H6      19.077479   13.116576   20.801676 H          1 MOL1         0.0783
      14    C5      18.288138   14.882331   19.776063 C.3        1 MOL1         0.1043
      15    H7      18.471282   15.964065   19.827493 H          1 MOL1         0.0783
      16    O4      16.864635   14.625215   19.865791 O.3        1 MOL1        -0.3740
      17    C6      18.763232   14.391475   18.390133 C.3        1 MOL1         0.0138
      18    H8      19.813921   14.675178   18.248968 H          1 MOL1         0.0794
      19    H9      18.180451   14.906338   17.614685 H          1 MOL1         0.0794
      20    O5      18.613660   12.974168   18.264163 O.3        1 MOL1        -0.5486
      21    H10     17.662489   12.783059   18.422994 H          1 MOL1         0.3769
      22    C7      14.954101   20.212233   21.872819 C.3        1 MOL1         0.2972
      23    H11     14.333018   21.093128   22.079349 H          1 MOL1         0.0751
      24    O6      16.215634   20.576046   21.275292 O.3        1 MOL1        -0.3740
      25    C8      15.226967   19.423360   23.178559 C.3        1 MOL1         0.1003
      26    H12     14.254776   19.087124   23.561887 H          1 MOL1         0.0783
      27    O7      15.864562   20.241145   24.172362 O.3        1 MOL1        -0.5519
      28    H13     15.803964   21.176453   23.861314 H          1 MOL1         0.3769
      29    C9      16.088550   18.173131   22.888597 C.3        1 MOL1         0.1053
      30    H14     17.083023   18.514668   22.577771 H          1 MOL1         0.0783
      31    O8      16.195687   17.396833   24.084907 O.3        1 MOL1        -0.5519
      32    H15     16.352683   18.061872   24.792293 H          1 MOL1         0.3769
      33    C10     15.493377   17.315002   21.744109 C.3        1 MOL1         0.1018
      34    H16     14.647449   16.740422   22.144547 H          1 MOL1         0.0783
      35    C11     15.031436   18.167331   20.527154 C.3        1 MOL1         0.1043
      36    H17     15.925311   18.508589   19.988666 H          1 MOL1         0.0783
      37    O9      14.268393   19.316791   20.972078 O.3        1 MOL1        -0.3740
      38    C12     14.157341   17.379788   19.525804 C.3        1 MOL1         0.0138
      39    H18     14.755913   16.570396   19.087065 H          1 MOL1         0.0794
      40    H19     13.866452   18.051400   18.706912 H          1 MOL1         0.0794
      41    O10     12.995244   16.842883   20.164569 O.3        1 MOL1        -0.5486
      42    H20     12.517400   17.608470   20.554746 H          1 MOL1         0.3769
      43    C13     18.497523   23.991701   20.606185 C.3        1 MOL1         0.2972
      44    H21     18.869007   24.976152   20.294392 H          1 MOL1         0.0751
      45    O11     19.553502   23.154899   21.118392 O.3        1 MOL1        -0.3740
      46    C14     17.432531   24.143101   21.720062 C.3        1 MOL1         0.1003
      47    H22     16.608439   24.739103   21.306788 H          1 MOL1         0.0783
      48    O12     17.976733   24.822696   22.862950 O.3        1 MOL1        -0.5519
      49    H23     18.900735   24.489705   22.993987 H          1 MOL1         0.3769
      50    C15     16.861472   22.763866   22.132105 C.3        1 MOL1         0.1053
      51    H24     17.666266   22.194400   22.614507 H          1 MOL1         0.0783
      52    O13     15.792021   22.970414   23.061177 O.3        1 MOL1        -0.5519
      53    H25     16.108298   23.693662   23.649699 H          1 MOL1         0.3769
      54    C16     16.376157   21.957443   20.894553 C.3        1 MOL1         0.1018
      55    H26     15.433014   22.379542   20.522940 H          1 MOL1         0.0783
      56    C17     17.421115   21.967634   19.745109 C.3        1 MOL1         0.1043
      57    H27     18.273038   21.341253   20.040263 H          1 MOL1         0.0783
      58    O14     17.874474   23.319480   19.492777 O.3        1 MOL1        -0.3740
      59    C18     16.861326   21.409071   18.417855 C.3        1 MOL1         0.0138
      60    H28     16.525267   20.375889   18.575679 H          1 MOL1         0.0794
      61    H29     17.671525   21.382647   17.677058 H          1 MOL1         0.0794
      62    O15     15.778571   22.211620   17.938160 O.3        1 MOL1        -0.5486
      63    H30     16.118987   23.133456   17.903908 H          1 MOL1         0.3769
      64    C19     23.669270   22.802860   21.386806 C.3        1 MOL1         0.2972
      65    H31     24.759023   22.932693   21.360617 H          1 MOL1         0.0751
      66    O16     23.301258   21.430398   21.631990 O.3        1 MOL1        -0.3740
      67    C20     23.023670   23.697044   22.477028 C.3        1 MOL1         0.1003
      68    H32     23.227919   24.740887   22.205418 H          1 MOL1         0.0783
      69    O17     23.580489   23.438180   23.774544 O.3        1 MOL1        -0.5519
      70    H33     23.484671   22.467843   23.951110 H          1 MOL1         0.3769
      71    C21     21.488433   23.500877   22.490071 C.3        1 MOL1         0.1053
      72    H34     21.280181   22.471182   22.803444 H          1 MOL1         0.0783
      73    O18     20.893790   24.417710   23.414141 O.3        1 MOL1        -0.5519
      74    H35     21.459759   24.374694   24.216941 H          1 MOL1         0.3769
      75    C22     20.883138   23.709296   21.079617 C.3        1 MOL1         0.1018
      76    H36     20.874858   24.786367   20.866883 H          1 MOL1         0.0783
      77    C23     21.673673   22.962060   19.968068 C.3        1 MOL1         0.1043
      78    H37     21.465853   21.887396   20.055012 H          1 MOL1         0.0783
      79    O19     23.096379   23.196537   20.121945 O.3        1 MOL1        -0.3740
      80    C24     21.283917   23.404373   18.539919 C.3        1 MOL1         0.0138
      81    H38     20.229082   23.159732   18.361387 H          1 MOL1         0.0794
      82    H39     21.878525   22.828716   17.818083 H          1 MOL1         0.0794
      83    O20     21.503712   24.806316   18.356680 O.3        1 MOL1        -0.5486
      84    H40     22.451024   24.964502   18.566620 H          1 MOL1         0.3769
      85    C25     24.760480   17.668770   22.489646 C.3        1 MOL1         0.2972
      86    H41     25.341354   16.784781   22.781837 H          1 MOL1         0.0751
      87    O21     23.518781   17.300055   21.854736 O.3        1 MOL1        -0.3740
      88    C26     24.460633   18.538514   23.735723 C.3        1 MOL1         0.1003
      89    H42     25.427015   18.871394   24.135948 H          1 MOL1         0.0783
      90    O22     23.773625   17.791537   24.749336 O.3        1 MOL1        -0.5519
      91    H43     22.901600   17.517314   24.368989 H          1 MOL1         0.3769
      92    C27     23.648541   19.794143   23.350215 C.3        1 MOL1         0.1053
      93    H44     22.656938   19.465964   23.014101 H          1 MOL1         0.0783
      94    O23     23.522996   20.635198   24.500852 O.3        1 MOL1        -0.5519
      95    H45     23.255044   20.028918   25.227196 H          1 MOL1         0.3769
      96    C28     24.317870   20.575933   22.193001 C.3        1 MOL1         0.1018
      97    H46     25.161823   21.149634   22.598838 H          1 MOL1         0.0783
      98    C29     24.803092   19.648746   21.043285 C.3        1 MOL1         0.1043
      99    H47     23.914573   19.319027   20.492015 H          1 MOL1         0.0783
     100    O24     25.507552   18.492257   21.567364 O.3        1 MOL1        -0.3740
     101    C30     25.739273   20.357907   20.039821 C.3        1 MOL1         0.0138
     102    H48     25.186508   21.166811   19.543739 H          1 MOL1         0.0794
     103    H49     26.034144   19.639794   19.262994 H          1 MOL1         0.0794
     104    O25     26.896752   20.882323   20.696707 O.3        1 MOL1        -0.5486
     105    H50     27.329866   20.120131   21.141880 H          1 MOL1         0.3769
     106    C31     21.426310   14.000736   20.521586 C.3        1 MOL1         0.2972
     107    H51     21.070211   13.073298   20.054734 H          1 MOL1         0.0751
     108    O26     20.341447   14.791457   21.043391 O.3        1 MOL1        -0.3740
     109    C32     22.395519   13.690799   21.686132 C.3        1 MOL1         0.1003
     110    H52     23.242555   13.133123   21.266010 H          1 MOL1         0.0783
     111    O27     21.750783   12.885519   22.686618 O.3        1 MOL1        -0.5519
     112    H53     20.869331   13.297986   22.873660 H          1 MOL1         0.3769
     113    C33     22.948357   14.995002   22.313127 C.3        1 MOL1         0.1053
     114    H54     22.125446   15.484331   22.851271 H          1 MOL1         0.0783
     115    O28     23.993107   14.649619   23.227815 O.3        1 MOL1        -0.5519
     116    H55     23.605100   13.965519   23.816012 H          1 MOL1         0.3769
     117    C34     23.479636   15.992726   21.243844 C.3        1 MOL1         0.1018
     118    H56     24.476568   15.676615   20.908629 H          1 MOL1         0.0783
     119    C35     22.552749   16.109337   20.001777 C.3        1 MOL1         0.1043
     120    H57     21.672567   16.710390   20.265936 H          1 MOL1         0.0783
     121    O29     22.149713   14.791467   19.560276 O.3        1 MOL1        -0.3740
     122    C36     23.264090   16.775491   18.805660 C.3        1 MOL1         0.0138
     123    H58     24.093725   16.135433   18.476560 H          1 MOL1         0.0794
     124    H59     23.691272   17.733768   19.119201 H          1 MOL1         0.0794
     125    O30     22.337767   16.982848   17.737758 O.3        1 MOL1        -0.5486
     126    H60     21.925986   16.107870   17.563021 H          1 MOL1         0.3769
     127    C1      19.729992   19.843260   22.369582 C.3        1 MOL1        -0.1689
     128    H1      20.430889   20.362903   21.703500 H          1 MOL1         0.0830
     129    H2      18.713703   20.035191   22.007555 H          1 MOL1         0.0830
     130    C2      19.852053   20.323428   23.823505 C.3        1 MOL1        -0.1689
     131    H3      19.247643   21.217805   24.022917 H          1 MOL1         0.0830
     132    H4      20.895936   20.565051   24.050289 H          1 MOL1         0.0830
     133    C3      19.414899   19.123981   24.677075 C.3        1 MOL1        -0.1765
     134    H5      18.330153   19.165053   24.830011 H          1 MOL1         0.0830
     135    H6      19.891134   19.135331   25.665910 H          1 MOL1         0.0830
     136    C4      19.765321   17.863209   23.866035 C.3        1 MOL1         0.1214
     137    H7      18.930755   17.152072   23.920453 H          1 MOL1         0.0787
     138    C5      19.985778   18.323080   22.409776 C.3        1 MOL1        -0.1765
     139    H8      21.012719   18.107477   22.094294 H          1 MOL1         0.0830
     140    H9      19.314111   17.791952   21.723593 H          1 MOL1         0.0830
     141    O1      20.953570   17.272128   24.377941 O.3        1 MOL1        -0.5512
     142    H10     20.741319   16.973501   25.284987 H          1 MOL1         0.3776
@<TRIPOS>BOND
    1     1     2    1
    2     1     3    1
    3     1     4    1
    4     4     5    1
    5     4     6    1
    6     6     7    1
    7     4     8    1
    8     8     9    1
    9     8    10    1
   10    10    11    1
   11     8    12    1
   12    12    13    1
   13    12    14    1
   14    14    15    1
   15     1    16    1
   16    14    16    1
   17    14    17    1
   18    17    18    1
   19    17    19    1
   20    17    20    1
   21    20    21    1
   22    22    23    1
   23    22    24    1
   24    22    25    1
   25    25    26    1
   26    25    27    1
   27    27    28    1
   28    25    29    1
   29    29    30    1
   30    29    31    1
   31    31    32    1
   32     3    33    1
   33    29    33    1
   34    33    34    1
   35    33    35    1
   36    35    36    1
   37    22    37    1
   38    35    37    1
   39    35    38    1
   40    38    39    1
   41    38    40    1
   42    38    41    1
   43    41    42    1
   44    43    44    1
   45    43    45    1
   46    43    46    1
   47    46    47    1
   48    46    48    1
   49    48    49    1
   50    46    50    1
   51    50    51    1
   52    50    52    1
   53    52    53    1
   54    24    54    1
   55    50    54    1
   56    54    55    1
   57    54    56    1
   58    56    57    1
   59    43    58    1
   60    56    58    1
   61    56    59    1
   62    59    60    1
   63    59    61    1
   64    59    62    1
   65    62    63    1
   66    64    65    1
   67    64    66    1
   68    64    67    1
   69    67    68    1
   70    67    69    1
   71    69    70    1
   72    67    71    1
   73    71    72    1
   74    71    73    1
   75    73    74    1
   76    45    75    1
   77    71    75    1
   78    75    76    1
   79    75    77    1
   80    77    78    1
   81    64    79    1
   82    77    79    1
   83    77    80    1
   84    80    81    1
   85    80    82    1
   86    80    83    1
   87    83    84    1
   88    85    86    1
   89    85    87    1
   90    85    88    1
   91    88    89    1
   92    88    90    1
   93    90    91    1
   94    88    92    1
   95    92    93    1
   96    92    94    1
   97    94    95    1
   98    66    96    1
   99    92    96    1
  100    96    97    1
  101    96    98    1
  102    98    99    1
  103    85   100    1
  104    98   100    1
  105    98   101    1
  106   101   102    1
  107   101   103    1
  108   101   104    1
  109   104   105    1
  110   106   107    1
  111    12   108    1
  112   106   108    1
  113   106   109    1
  114   109   110    1
  115   109   111    1
  116   111   112    1
  117   109   113    1
  118   113   114    1
  119   113   115    1
  120   115   116    1
  121    87   117    1
  122   113   117    1
  123   117   118    1
  124   117   119    1
  125   119   120    1
  126   106   121    1
  127   119   121    1
  128   119   122    1
  129   122   123    1
  130   122   124    1
  131   122   125    1
  132   125   126    1
  133   127   128    1
  134   127   129    1
  135   127   130    1
  136   130   131    1
  137   130   132    1
  138   130   133    1
  139   133   134    1
  140   133   135    1
  141   133   136    1
  142   136   137    1
  143   127   138    1
  144   136   138    1
  145   138   139    1
  146   138   140    1
  147   136   141    1
  148   141   142    1
@<TRIPOS>SUBSTRUCTURE
       1 MOL1            1 RESIDUE      1      MOL     
       2 MOL1          142 RESIDUE      1      MOL     
@<SCITEGIC>MOL_PROPERTY
VM2 Rank
SciTegic.value.IntegerValue
4

@<SCITEGIC>MOL_PROPERTY
Conf_Id
SciTegic.value.IntegerValue
20540

@<SCITEGIC>MOL_PROPERTY
Probability
SciTegic.value.DoubleValue
1.02

@<SCITEGIC>MOL_PROPERTY
Sum Probability
SciTegic.value.DoubleValue
4.67

@<SCITEGIC>MOL_PROPERTY
Delta G
SciTegic.value.DoubleValue
0.167

@<SCITEGIC>MOL_PROPERTY
G
SciTegic.value.DoubleValue
549.530

@<SCITEGIC>MOL_PROPERTY
E
SciTegic.value.DoubleValue
365.196

@<SCITEGIC>MOL_PROPERTY
-TS
SciTegic.value.DoubleValue
184.334

@<SCITEGIC>MOL_PROPERTY
U+W
SciTegic.value.DoubleValue
240.002

@<SCITEGIC>MOL_PROPERTY
U
SciTegic.value.DoubleValue
273.098

@<SCITEGIC>MOL_PROPERTY
W
SciTegic.value.DoubleValue
-33.096

@<SCITEGIC>MOL_PROPERTY
W(PB)
SciTegic.value.DoubleValue
-39.221

@<SCITEGIC>MOL_PROPERTY
W(SA)
SciTegic.value.DoubleValue
6.125

@<SCITEGIC>MOL_PROPERTY
Valence
SciTegic.value.DoubleValue
157.316

@<SCITEGIC>MOL_PROPERTY
Coulomb
SciTegic.value.DoubleValue
139.214

@<SCITEGIC>MOL_PROPERTY
VdW
SciTegic.value.DoubleValue
-23.431

@<SCITEGIC>MOL_PROPERTY
VdW6
SciTegic.value.DoubleValue
-168.538

@<SCITEGIC>MOL_PROPERTY
VdW12
SciTegic.value.DoubleValue
145.107

@<SCITEGIC>MOL_PROPERTY
Bond
SciTegic.value.DoubleValue
4.294

@<SCITEGIC>MOL_PROPERTY
Angle
SciTegic.value.DoubleValue
12.414

@<SCITEGIC>MOL_PROPERTY
Pdih
SciTegic.value.DoubleValue
140.607

@<SCITEGIC>MOL_PROPERTY
Idih
SciTegic.value.DoubleValue
0.000

@<SCITEGIC>MOL_PROPERTY
Tether
SciTegic.value.DoubleValue
0.000

@<TRIPOS>MOLECULE
CD_guest-4_vm2_rndm.mol2 : vm2 host+ligand conformer 5
         142         148           2
SMALL
USER_CHARGES
 
@<TRIPOS>ATOM
       1    C1      16.229828   15.107497   21.293638 C.3        1 MOL1         0.2972
       2    H1      15.144470   14.943535   21.304958 H          1 MOL1         0.0751
       3    O1      16.562802   16.498534   21.478733 O.3        1 MOL1        -0.3740
       4    C2      16.924705   14.286112   22.409644 C.3        1 MOL1         0.1003
       5    H2      16.719400   13.226306   22.210474 H          1 MOL1         0.0783
       6    O2      16.408586   14.625920   23.706221 O.3        1 MOL1        -0.5519
       7    H3      16.413249   15.614008   23.780728 H          1 MOL1         0.3769
       8    C3      18.459130   14.488306   22.363893 C.3        1 MOL1         0.1053
       9    H4      18.675583   15.525885   22.643287 H          1 MOL1         0.0783
      10    O3      19.084709   13.595681   23.291999 O.3        1 MOL1        -0.5519
      11    H5      18.579048   13.701213   24.127925 H          1 MOL1         0.3769
      12    C4      19.024755   14.245820   20.942627 C.3        1 MOL1         0.1018
      13    H6      19.060654   13.162576   20.766280 H          1 MOL1         0.0783
      14    C5      18.187754   14.939607   19.831385 C.3        1 MOL1         0.1043
      15    H7      18.370048   16.021339   19.884110 H          1 MOL1         0.0783
      16    O4      16.778254   14.674543   20.031248 O.3        1 MOL1        -0.3740
      17    C6      18.553362   14.470732   18.405106 C.3        1 MOL1         0.0138
      18    H8      19.590108   14.758309   18.186479 H          1 MOL1         0.0794
      19    H9      17.911236   14.996106   17.685608 H          1 MOL1         0.0794
      20    O5      18.394890   13.055219   18.270012 O.3        1 MOL1        -0.5486
      21    H10     17.460514   12.859995   18.505333 H          1 MOL1         0.3769
      22    C7      14.875049   20.253151   21.928802 C.3        1 MOL1         0.2972
      23    H11     14.221250   21.118684   22.096827 H          1 MOL1         0.0751
      24    O6      16.155626   20.647774   21.394756 O.3        1 MOL1        -0.3740
      25    C8      15.091292   19.476016   23.252717 C.3        1 MOL1         0.1003
      26    H12     14.108961   19.105406   23.573461 H          1 MOL1         0.0783
      27    O7      15.629668   20.315106   24.286104 O.3        1 MOL1        -0.5519
      28    H13     15.656655   21.236462   23.930140 H          1 MOL1         0.3769
      29    C9      16.008654   18.254476   23.018727 C.3        1 MOL1         0.1053
      30    H14     17.002820   18.624134   22.739639 H          1 MOL1         0.0783
      31    O8      16.092839   17.494601   24.227592 O.3        1 MOL1        -0.5519
      32    H15     16.213871   18.170636   24.932039 H          1 MOL1         0.3769
      33    C10     15.479973   17.367697   21.865252 C.3        1 MOL1         0.1018
      34    H16     14.612939   16.804095   22.234729 H          1 MOL1         0.0783
      35    C11     15.080193   18.195894   20.609989 C.3        1 MOL1         0.1043
      36    H17     16.000080   18.546413   20.123266 H          1 MOL1         0.0783
      37    O9      14.268365   19.336787   20.992301 O.3        1 MOL1        -0.3740
      38    C12     14.281167   17.379567   19.569657 C.3        1 MOL1         0.0138
      39    H18     14.915558   16.570770   19.183577 H          1 MOL1         0.0794
      40    H19     14.033882   18.032837   18.722220 H          1 MOL1         0.0794
      41    O10     13.087834   16.838654   20.144378 O.3        1 MOL1        -0.5486
      42    H20     12.578827   17.604322   20.492598 H          1 MOL1         0.3769
      43    C13     18.409674   24.052637   20.675016 C.3        1 MOL1         0.2972
      44    H21     18.790505   25.034425   20.366136 H          1 MOL1         0.0751
      45    O11     19.463935   23.184333   21.139266 O.3        1 MOL1        -0.3740
      46    C14     17.385666   24.205219   21.825611 C.3        1 MOL1         0.1003
      47    H22     16.555249   24.815570   21.447453 H          1 MOL1         0.0783
      48    O12     17.976249   24.863912   22.957387 O.3        1 MOL1        -0.5519
      49    H23     18.897049   24.511853   23.057946 H          1 MOL1         0.3769
      50    C15     16.814751   22.826563   22.238641 C.3        1 MOL1         0.1053
      51    H24     17.627258   22.250425   22.700032 H          1 MOL1         0.0783
      52    O13     15.763072   23.028742   23.188009 O.3        1 MOL1        -0.5519
      53    H25     16.097774   23.734962   23.786730 H          1 MOL1         0.3769
      54    C16     16.295135   22.029804   21.009753 C.3        1 MOL1         0.1018
      55    H26     15.337983   22.451224   20.674511 H          1 MOL1         0.0783
      56    C17     17.289190   22.054238   19.817070 C.3        1 MOL1         0.1043
      57    H27     18.149525   21.414659   20.048817 H          1 MOL1         0.0783
      58    O14     17.728095   23.412599   19.576416 O.3        1 MOL1        -0.3740
      59    C18     16.639813   21.536366   18.517075 C.3        1 MOL1         0.0138
      60    H28     15.806537   22.195820   18.239690 H          1 MOL1         0.0794
      61    H29     16.227664   20.533968   18.693281 H          1 MOL1         0.0794
      62    O15     17.611217   21.487903   17.470128 O.3        1 MOL1        -0.5486
      63    H30     17.994942   22.390954   17.414908 H          1 MOL1         0.3769
      64    C19     23.588931   22.768713   21.268934 C.3        1 MOL1         0.2972
      65    H31     24.677939   22.891451   21.205341 H          1 MOL1         0.0751
      66    O16     23.223596   21.393536   21.504132 O.3        1 MOL1        -0.3740
      67    C20     22.986539   23.660861   22.387111 C.3        1 MOL1         0.1003
      68    H32     23.186736   24.704357   22.111106 H          1 MOL1         0.0783
      69    O17     23.586473   23.399527   23.664362 O.3        1 MOL1        -0.5519
      70    H33     23.422626   22.445761   23.876333 H          1 MOL1         0.3769
      71    C21     21.451481   23.473912   22.452665 C.3        1 MOL1         0.1053
      72    H34     21.246860   22.440872   22.761044 H          1 MOL1         0.0783
      73    O18     20.896309   24.384707   23.406947 O.3        1 MOL1        -0.5519
      74    H35     21.492031   24.332931   24.187377 H          1 MOL1         0.3769
      75    C22     20.803954   23.708027   21.064917 C.3        1 MOL1         0.1018
      76    H36     20.813381   24.786633   20.860183 H          1 MOL1         0.0783
      77    C23     21.544618   22.953047   19.925240 C.3        1 MOL1         0.1043
      78    H37     21.329220   21.880458   20.021652 H          1 MOL1         0.0783
      79    O19     22.974372   23.176320   20.027803 O.3        1 MOL1        -0.3740
      80    C24     21.105117   23.396005   18.512052 C.3        1 MOL1         0.0138
      81    H38     20.044595   23.151769   18.373128 H          1 MOL1         0.0794
      82    H39     21.672129   22.819245   17.769209 H          1 MOL1         0.0794
      83    O20     21.318450   24.797712   18.320092 O.3        1 MOL1        -0.5486
      84    H40     22.273742   24.955407   18.490178 H          1 MOL1         0.3769
      85    C25     24.611825   17.653277   22.506630 C.3        1 MOL1         0.2972
      86    H41     25.161220   16.766905   22.846550 H          1 MOL1         0.0751
      87    O21     23.418736   17.293273   21.777650 O.3        1 MOL1        -0.3740
      88    C26     24.217663   18.528211   23.722241 C.3        1 MOL1         0.1003
      89    H42     25.150498   18.858298   24.197441 H          1 MOL1         0.0783
      90    O22     23.448052   17.787131   24.680371 O.3        1 MOL1        -0.5519
      91    H43     22.638305   17.451689   24.219428 H          1 MOL1         0.3769
      92    C27     23.446047   19.787111   23.268791 C.3        1 MOL1         0.1053
      93    H44     22.480760   19.460698   22.864634 H          1 MOL1         0.0783
      94    O23     23.236944   20.637113   24.400268 O.3        1 MOL1        -0.5519
      95    H45     22.945800   20.033174   25.118834 H          1 MOL1         0.3769
      96    C28     24.201454   20.559164   22.157461 C.3        1 MOL1         0.1018
      97    H46     25.004182   21.148695   22.620266 H          1 MOL1         0.0783
      98    C29     24.788122   19.623776   21.062123 C.3        1 MOL1         0.1043
      99    H47     23.953517   19.288543   20.437364 H          1 MOL1         0.0783
     100    O24     25.440922   18.470825   21.652786 O.3        1 MOL1        -0.3740
     101    C30     25.808529   20.323828   20.137844 C.3        1 MOL1         0.0138
     102    H48     25.299975   21.123749   19.583489 H          1 MOL1         0.0794
     103    H49     26.173432   19.596292   19.400248 H          1 MOL1         0.0794
     104    O25     26.901016   20.861529   20.888506 O.3        1 MOL1        -0.5486
     105    H50     27.297601   20.106026   21.377029 H          1 MOL1         0.3769
     106    C31     21.380775   14.058910   20.306478 C.3        1 MOL1         0.2972
     107    H51     20.986833   13.164646   19.806420 H          1 MOL1         0.0751
     108    O26     20.335174   14.839484   20.917097 O.3        1 MOL1        -0.3740
     109    C32     22.402120   13.675588   21.401620 C.3        1 MOL1         0.1003
     110    H52     23.231915   13.154238   20.907023 H          1 MOL1         0.0783
     111    O27     21.806169   12.800680   22.373229 O.3        1 MOL1        -0.5519
     112    H53     20.958094   13.222160   22.666346 H          1 MOL1         0.3769
     113    C33     22.974610   14.938426   22.091500 C.3        1 MOL1         0.1053
     114    H54     22.170510   15.373604   22.697640 H          1 MOL1         0.0783
     115    O28     24.056094   14.539035   22.939526 O.3        1 MOL1        -0.5519
     116    H55     23.699279   13.799929   23.479353 H          1 MOL1         0.3769
     117    C34     23.447914   16.026911   21.081717 C.3        1 MOL1         0.1018
     118    H56     24.460786   15.787870   20.731630 H          1 MOL1         0.0783
     119    C35     22.506637   16.180552   19.848785 C.3        1 MOL1         0.1043
     120    H57     21.629102   16.765870   20.152165 H          1 MOL1         0.0783
     121    O29     22.075796   14.888701   19.358736 O.3        1 MOL1        -0.3740
     122    C36     23.165218   16.907590   18.654985 C.3        1 MOL1         0.0138
     123    H58     23.441340   17.923944   18.953360 H          1 MOL1         0.0794
     124    H59     22.425415   16.996316   17.848211 H          1 MOL1         0.0794
     125    O30     24.318108   16.200509   18.189250 O.3        1 MOL1        -0.5486
     126    H60     24.017088   15.283840   18.000581 H          1 MOL1         0.3769
     127    C1      19.646893   19.784185   22.334387 C.3        1 MOL1        -0.1689
     128    H1      20.546336   20.291227   21.962743 H          1 MOL1         0.0830
     129    H2      18.817057   20.051350   21.670853 H          1 MOL1         0.0830
     130    C2      19.348415   20.210411   23.783508 C.3        1 MOL1        -0.1689
     131    H3      18.264998   20.306296   23.921859 H          1 MOL1         0.0830
     132    H4      19.805031   21.175157   24.039543 H          1 MOL1         0.0830
     133    C3      19.872005   19.070652   24.670249 C.3        1 MOL1        -0.1765
     134    H5      19.310502   18.996330   25.610024 H          1 MOL1         0.0830
     135    H6      20.925609   19.246656   24.914608 H          1 MOL1         0.0830
     136    C4      19.732803   17.800177   23.822825 C.3        1 MOL1         0.1214
     137    H7      18.730605   17.377005   23.973151 H          1 MOL1         0.0787
     138    C5      19.869392   18.256437   22.359309 C.3        1 MOL1        -0.1765
     139    H8      20.865168   18.014907   21.971400 H          1 MOL1         0.0830
     140    H9      19.135255   17.740622   21.728311 H          1 MOL1         0.0830
     141    O1      20.743434   16.861570   24.161948 O.3        1 MOL1        -0.5512
     142    H10     20.523550   16.526419   25.054442 H          1 MOL1         0.3776
@<TRIPOS>BOND
    1     1     2    1
    2     1     3    1
    3     1     4    1
    4     4     5    1
    5     4     6    1
    6     6     7    1
    7     4     8    1
    8     8     9    1
    9     8    10    1
   10    10    11    1
   11     8    12    1
   12    12    13    1
   13    12    14    1
   14    14    15    1
   15     1    16    1
   16    14    16    1
   17    14    17    1
   18    17    18    1
   19    17    19    1
   20    17    20    1
   21    20    21    1
   22    22    23    1
   23    22    24    1
   24    22    25    1
   25    25    26    1
   26    25    27    1
   27    27    28    1
   28    25    29    1
   29    29    30    1
   30    29    31    1
   31    31    32    1
   32     3    33    1
   33    29    33    1
   34    33    34    1
   35    33    35    1
   36    35    36    1
   37    22    37    1
   38    35    37    1
   39    35    38    1
   40    38    39    1
   41    38    40    1
   42    38    41    1
   43    41    42    1
   44    43    44    1
   45    43    45    1
   46    43    46    1
   47    46    47    1
   48    46    48    1
   49    48    49    1
   50    46    50    1
   51    50    51    1
   52    50    52    1
   53    52    53    1
   54    24    54    1
   55    50    54    1
   56    54    55    1
   57    54    56    1
   58    56    57    1
   59    43    58    1
   60    56    58    1
   61    56    59    1
   62    59    60    1
   63    59    61    1
   64    59    62    1
   65    62    63    1
   66    64    65    1
   67    64    66    1
   68    64    67    1
   69    67    68    1
   70    67    69    1
   71    69    70    1
   72    67    71    1
   73    71    72    1
   74    71    73    1
   75    73    74    1
   76    45    75    1
   77    71    75    1
   78    75    76    1
   79    75    77    1
   80    77    78    1
   81    64    79    1
   82    77    79    1
   83    77    80    1
   84    80    81    1
   85    80    82    1
   86    80    83    1
   87    83    84    1
   88    85    86    1
   89    85    87    1
   90    85    88    1
   91    88    89    1
   92    88    90    1
   93    90    91    1
   94    88    92    1
   95    92    93    1
   96    92    94    1
   97    94    95    1
   98    66    96    1
   99    92    96    1
  100    96    97    1
  101    96    98    1
  102    98    99    1
  103    85   100    1
  104    98   100    1
  105    98   101    1
  106   101   102    1
  107   101   103    1
  108   101   104    1
  109   104   105    1
  110   106   107    1
  111    12   108    1
  112   106   108    1
  113   106   109    1
  114   109   110    1
  115   109   111    1
  116   111   112    1
  117   109   113    1
  118   113   114    1
  119   113   115    1
  120   115   116    1
  121    87   117    1
  122   113   117    1
  123   117   118    1
  124   117   119    1
  125   119   120    1
  126   106   121    1
  127   119   121    1
  128   119   122    1
  129   122   123    1
  130   122   124    1
  131   122   125    1
  132   125   126    1
  133   127   128    1
  134   127   129    1
  135   127   130    1
  136   130   131    1
  137   130   132    1
  138   130   133    1
  139   133   134    1
  140   133   135    1
  141   133   136    1
  142   136   137    1
  143   127   138    1
  144   136   138    1
  145   138   139    1
  146   138   140    1
  147   136   141    1
  148   141   142    1
@<TRIPOS>SUBSTRUCTURE
       1 MOL1            1 RESIDUE      1      MOL     
       2 MOL1          142 RESIDUE      1      MOL     
@<SCITEGIC>MOL_PROPERTY
VM2 Rank
SciTegic.value.IntegerValue
5

@<SCITEGIC>MOL_PROPERTY
Conf_Id
SciTegic.value.IntegerValue
22269

@<SCITEGIC>MOL_PROPERTY
Probability
SciTegic.value.DoubleValue
0.92

@<SCITEGIC>MOL_PROPERTY
Sum Probability
SciTegic.value.DoubleValue
5.59

@<SCITEGIC>MOL_PROPERTY
Delta G
SciTegic.value.DoubleValue
0.231

@<SCITEGIC>MOL_PROPERTY
G
SciTegic.value.DoubleValue
549.594

@<SCITEGIC>MOL_PROPERTY
E
SciTegic.value.DoubleValue
365.004

@<SCITEGIC>MOL_PROPERTY
-TS
SciTegic.value.DoubleValue
184.590

@<SCITEGIC>MOL_PROPERTY
U+W
SciTegic.value.DoubleValue
239.810

@<SCITEGIC>MOL_PROPERTY
U
SciTegic.value.DoubleValue
273.055

@<SCITEGIC>MOL_PROPERTY
W
SciTegic.value.DoubleValue
-33.245

@<SCITEGIC>MOL_PROPERTY
W(PB)
SciTegic.value.DoubleValue
-39.392

@<SCITEGIC>MOL_PROPERTY
W(SA)
SciTegic.value.DoubleValue
6.148

@<SCITEGIC>MOL_PROPERTY
Valence
SciTegic.value.DoubleValue
157.933

@<SCITEGIC>MOL_PROPERTY
Coulomb
SciTegic.value.DoubleValue
139.262

@<SCITEGIC>MOL_PROPERTY
VdW
SciTegic.value.DoubleValue
-24.140

@<SCITEGIC>MOL_PROPERTY
VdW6
SciTegic.value.DoubleValue
-170.093

@<SCITEGIC>MOL_PROPERTY
VdW12
SciTegic.value.DoubleValue
145.953

@<SCITEGIC>MOL_PROPERTY
Bond
SciTegic.value.DoubleValue
4.400

@<SCITEGIC>MOL_PROPERTY
Angle
SciTegic.value.DoubleValue
12.534

@<SCITEGIC>MOL_PROPERTY
Pdih
SciTegic.value.DoubleValue
140.999

@<SCITEGIC>MOL_PROPERTY
Idih
SciTegic.value.DoubleValue
0.000

@<SCITEGIC>MOL_PROPERTY
Tether
SciTegic.value.DoubleValue
0.000

@<TRIPOS>MOLECULE
CD_guest-4_vm2_rndm.mol2 : vm2 host+ligand conformer 6
         142         148           2
SMALL
USER_CHARGES
 
@<TRIPOS>ATOM
       1    C1      16.176226   15.133403   21.026245 C.3        1 MOL1         0.2972
       2    H1      15.092062   15.000270   20.916861 H          1 MOL1         0.0751
       3    O1      16.518519   16.501944   21.324673 O.3        1 MOL1        -0.3740
       4    C2      16.743830   14.220851   22.144158 C.3        1 MOL1         0.1003
       5    H2      16.566251   13.181648   21.838172 H          1 MOL1         0.0783
       6    O2      16.090488   14.452091   23.401267 O.3        1 MOL1        -0.5519
       7    H3      16.165491   15.419541   23.602040 H          1 MOL1         0.3769
       8    C3      18.272734   14.423213   22.275319 C.3        1 MOL1         0.1053
       9    H4      18.451472   15.447497   22.622988 H          1 MOL1         0.0783
      10    O3      18.801267   13.491002   23.223757 O.3        1 MOL1        -0.5519
      11    H5      18.176169   13.516100   23.982266 H          1 MOL1         0.3769
      12    C4      18.982524   14.244693   20.910059 C.3        1 MOL1         0.1018
      13    H6      19.014218   13.171961   20.678380 H          1 MOL1         0.0783
      14    C5      18.272317   15.009428   19.757072 C.3        1 MOL1         0.1043
      15    H7      18.467058   16.083136   19.879607 H          1 MOL1         0.0783
      16    O4      16.843430   14.766216   19.800178 O.3        1 MOL1        -0.3740
      17    C6      18.770765   14.596483   18.354157 C.3        1 MOL1         0.0138
      18    H8      19.834801   14.848866   18.260555 H          1 MOL1         0.0794
      19    H9      18.229005   15.183548   17.600606 H          1 MOL1         0.0794
      20    O5      18.573345   13.197416   18.128395 O.3        1 MOL1        -0.5486
      21    H10     17.613801   13.031195   18.263141 H          1 MOL1         0.3769
      22    C7      14.987615   20.244025   22.136945 C.3        1 MOL1         0.2972
      23    H11     14.383176   21.121395   22.399588 H          1 MOL1         0.0751
      24    O6      16.274086   20.626535   21.607950 O.3        1 MOL1        -0.3740
      25    C8      15.191749   19.351492   23.386185 C.3        1 MOL1         0.1003
      26    H12     14.197799   19.010654   23.703652 H          1 MOL1         0.0783
      27    O7      15.796087   20.079760   24.464270 O.3        1 MOL1        -0.5519
      28    H13     16.696444   20.358891   24.161345 H          1 MOL1         0.3769
      29    C9      16.033587   18.103619   23.041767 C.3        1 MOL1         0.1053
      30    H14     17.047865   18.438467   22.790506 H          1 MOL1         0.0783
      31    O8      16.069856   17.241012   24.182671 O.3        1 MOL1        -0.5519
      32    H15     16.277884   17.833548   24.939362 H          1 MOL1         0.3769
      33    C10     15.458508   17.343344   21.821240 C.3        1 MOL1         0.1018
      34    H16     14.587348   16.760440   22.148952 H          1 MOL1         0.0783
      35    C11     15.061772   18.291523   20.654989 C.3        1 MOL1         0.1043
      36    H17     15.989772   18.631961   20.180869 H          1 MOL1         0.0783
      37    O9      14.316406   19.437537   21.144056 O.3        1 MOL1        -0.3740
      38    C12     14.207937   17.600554   19.568804 C.3        1 MOL1         0.0138
      39    H18     14.799152   16.801144   19.102558 H          1 MOL1         0.0794
      40    H19     13.973106   18.332715   18.784656 H          1 MOL1         0.0794
      41    O10     13.003811   17.063652   20.123848 O.3        1 MOL1        -0.5486
      42    H20     12.536045   17.817317   20.547983 H          1 MOL1         0.3769
      43    C13     18.446286   23.954715   20.497031 C.3        1 MOL1         0.2972
      44    H21     18.837990   24.888201   20.072584 H          1 MOL1         0.0751
      45    O11     19.485138   23.161679   21.101897 O.3        1 MOL1        -0.3740
      46    C14     17.373123   24.246250   21.572059 C.3        1 MOL1         0.1003
      47    H22     16.560915   24.796836   21.079948 H          1 MOL1         0.0783
      48    O12     17.912451   25.052837   22.631775 O.3        1 MOL1        -0.5519
      49    H23     18.764909   24.634960   22.916385 H          1 MOL1         0.3769
      50    C15     16.781203   22.931230   22.137594 C.3        1 MOL1         0.1053
      51    H24     17.558894   22.442880   22.740665 H          1 MOL1         0.0783
      52    O13     15.658257   23.259230   22.961562 O.3        1 MOL1        -0.5519
      53    H25     15.986328   23.945047   23.583369 H          1 MOL1         0.3769
      54    C16     16.353121   21.940912   21.016126 C.3        1 MOL1         0.1018
      55    H26     15.385354   22.252076   20.600438 H          1 MOL1         0.0783
      56    C17     17.383458   21.845997   19.855949 C.3        1 MOL1         0.1043
      57    H27     18.241133   21.245146   20.186432 H          1 MOL1         0.0783
      58    O14     17.816109   23.171281   19.466765 O.3        1 MOL1        -0.3740
      59    C18     16.780643   21.193379   18.594513 C.3        1 MOL1         0.0138
      60    H28     15.981997   21.836828   18.201552 H          1 MOL1         0.0794
      61    H29     16.329157   20.231284   18.857909 H          1 MOL1         0.0794
      62    O15     17.797217   20.999188   17.609500 O.3        1 MOL1        -0.5486
      63    H30     18.226484   21.874782   17.487171 H          1 MOL1         0.3769
      64    C19     23.572330   22.941562   21.607901 C.3        1 MOL1         0.2972
      65    H31     24.655458   23.106116   21.668835 H          1 MOL1         0.0751
      66    O16     23.235887   21.541441   21.701929 O.3        1 MOL1        -0.3740
      67    C20     22.829889   23.714054   22.727665 C.3        1 MOL1         0.1003
      68    H32     23.014326   24.783631   22.562852 H          1 MOL1         0.0783
      69    O17     23.316559   23.355709   24.029523 O.3        1 MOL1        -0.5519
      70    H33     23.278162   22.368321   24.101669 H          1 MOL1         0.3769
      71    C21     21.304653   23.475379   22.624303 C.3        1 MOL1         0.1053
      72    H34     21.108581   22.418389   22.836234 H          1 MOL1         0.0783
      73    O18     20.626186   24.297205   23.579638 O.3        1 MOL1        -0.5519
      74    H35     21.131082   24.187613   24.415945 H          1 MOL1         0.3769
      75    C22     20.780483   23.781274   21.199874 C.3        1 MOL1         0.1018
      76    H36     20.725138   24.871612   21.081696 H          1 MOL1         0.0783
      77    C23     21.670334   23.168306   20.080560 C.3        1 MOL1         0.1043
      78    H37     21.500805   22.083300   20.059264 H          1 MOL1         0.0783
      79    O19     23.069655   23.435583   20.349046 O.3        1 MOL1        -0.3740
      80    C24     21.350717   23.718931   18.672767 C.3        1 MOL1         0.0138
      81    H38     20.327803   23.430603   18.398149 H          1 MOL1         0.0794
      82    H39     22.027614   23.247802   17.947526 H          1 MOL1         0.0794
      83    O20     21.490252   25.142194   18.630243 O.3        1 MOL1        -0.5486
      84    H40     22.413530   25.336263   18.906624 H          1 MOL1         0.3769
      85    C25     24.798909   17.748606   22.257363 C.3        1 MOL1         0.2972
      86    H41     25.421830   16.870972   22.472759 H          1 MOL1         0.0751
      87    O21     23.572160   17.382863   21.595883 O.3        1 MOL1        -0.3740
      88    C26     24.455779   18.501586   23.567154 C.3        1 MOL1         0.1003
      89    H42     25.405835   18.824952   24.012033 H          1 MOL1         0.0783
      90    O22     23.765429   17.655483   24.500441 O.3        1 MOL1        -0.5519
      91    H43     23.813889   16.734016   24.147902 H          1 MOL1         0.3769
      92    C27     23.611152   19.761380   23.267798 C.3        1 MOL1         0.1053
      93    H44     22.633047   19.429615   22.898916 H          1 MOL1         0.0783
      94    O23     23.445402   20.503703   24.478363 O.3        1 MOL1        -0.5519
      95    H45     23.250496   19.819922   25.158098 H          1 MOL1         0.3769
      96    C28     24.262955   20.647797   22.175483 C.3        1 MOL1         0.1018
      97    H46     25.110953   21.188296   22.616970 H          1 MOL1         0.0783
      98    C29     24.743804   19.819438   20.951265 C.3        1 MOL1         0.1043
      99    H47     23.862358   19.490944   20.384639 H          1 MOL1         0.0783
     100    O24     25.507073   18.672873   21.405232 O.3        1 MOL1        -0.3740
     101    C30     25.650478   20.628202   20.000946 C.3        1 MOL1         0.0138
     102    H48     26.566475   20.918952   20.532495 H          1 MOL1         0.0794
     103    H49     25.132477   21.546208   19.693875 H          1 MOL1         0.0794
     104    O25     25.964769   19.843611   18.848767 O.3        1 MOL1        -0.5486
     105    H50     26.255055   18.965884   19.186231 H          1 MOL1         0.3769
     106    C31     21.399137   13.986267   20.607703 C.3        1 MOL1         0.2972
     107    H51     21.057945   13.013049   20.232437 H          1 MOL1         0.0751
     108    O26     20.301515   14.806172   21.056114 O.3        1 MOL1        -0.3740
     109    C32     22.367684   13.798613   21.801613 C.3        1 MOL1         0.1003
     110    H52     23.229878   13.224481   21.438143 H          1 MOL1         0.0783
     111    O27     21.736110   13.073305   22.868819 O.3        1 MOL1        -0.5519
     112    H53     20.805822   13.406140   22.944474 H          1 MOL1         0.3769
     113    C33     22.886347   15.166220   22.309289 C.3        1 MOL1         0.1053
     114    H54     22.036451   15.712591   22.738000 H          1 MOL1         0.0783
     115    O28     23.874197   14.941501   23.320759 O.3        1 MOL1        -0.5519
     116    H55     23.516256   14.199901   23.860284 H          1 MOL1         0.3769
     117    C34     23.468917   16.017782   21.147694 C.3        1 MOL1         0.1018
     118    H56     24.447942   15.619166   20.850283 H          1 MOL1         0.0783
     119    C35     22.535843   16.040112   19.906220 C.3        1 MOL1         0.1043
     120    H57     21.657985   16.657381   20.137816 H          1 MOL1         0.0783
     121    O29     22.112030   14.695672   19.573724 O.3        1 MOL1        -0.3740
     122    C36     23.219180   16.637271   18.655352 C.3        1 MOL1         0.0138
     123    H58     23.537734   17.665129   18.874148 H          1 MOL1         0.0794
     124    H59     22.483887   16.686525   17.841274 H          1 MOL1         0.0794
     125    O30     24.344319   15.847416   18.258794 O.3        1 MOL1        -0.5486
     126    H60     24.009647   14.928011   18.162571 H          1 MOL1         0.3769
     127    C1      20.015613   18.089751   22.390050 C.3        1 MOL1        -0.1689
     128    H1      19.370950   17.588471   21.656369 H          1 MOL1         0.0830
     129    H2      21.057611   17.905579   22.106507 H          1 MOL1         0.0830
     130    C2      19.777211   17.573209   23.816857 C.3        1 MOL1        -0.1689
     131    H3      20.363924   16.673076   24.041489 H          1 MOL1         0.0830
     132    H4      18.718710   17.327377   23.952746 H          1 MOL1         0.0830
     133    C3      20.144063   18.749820   24.733041 C.3        1 MOL1        -0.1765
     134    H5      21.213087   18.702201   24.972591 H          1 MOL1         0.0830
     135    H6      19.588722   18.715395   25.679155 H          1 MOL1         0.0830
     136    C4      19.862225   20.031439   23.928050 C.3        1 MOL1         0.1214
     137    H7      20.692403   20.735840   24.068473 H          1 MOL1         0.0787
     138    C5      19.758698   19.608974   22.447692 C.3        1 MOL1        -0.1765
     139    H8      18.760400   19.835279   22.056545 H          1 MOL1         0.0830
     140    H9      20.483569   20.154976   21.830767 H          1 MOL1         0.0830
     141    O1      18.637618   20.616178   24.355017 O.3        1 MOL1        -0.5512
     142    H10     18.775309   20.893330   25.283012 H          1 MOL1         0.3776
@<TRIPOS>BOND
    1     1     2    1
    2     1     3    1
    3     1     4    1
    4     4     5    1
    5     4     6    1
    6     6     7    1
    7     4     8    1
    8     8     9    1
    9     8    10    1
   10    10    11    1
   11     8    12    1
   12    12    13    1
   13    12    14    1
   14    14    15    1
   15     1    16    1
   16    14    16    1
   17    14    17    1
   18    17    18    1
   19    17    19    1
   20    17    20    1
   21    20    21    1
   22    22    23    1
   23    22    24    1
   24    22    25    1
   25    25    26    1
   26    25    27    1
   27    27    28    1
   28    25    29    1
   29    29    30    1
   30    29    31    1
   31    31    32    1
   32     3    33    1
   33    29    33    1
   34    33    34    1
   35    33    35    1
   36    35    36    1
   37    22    37    1
   38    35    37    1
   39    35    38    1
   40    38    39    1
   41    38    40    1
   42    38    41    1
   43    41    42    1
   44    43    44    1
   45    43    45    1
   46    43    46    1
   47    46    47    1
   48    46    48    1
   49    48    49    1
   50    46    50    1
   51    50    51    1
   52    50    52    1
   53    52    53    1
   54    24    54    1
   55    50    54    1
   56    54    55    1
   57    54    56    1
   58    56    57    1
   59    43    58    1
   60    56    58    1
   61    56    59    1
   62    59    60    1
   63    59    61    1
   64    59    62    1
   65    62    63    1
   66    64    65    1
   67    64    66    1
   68    64    67    1
   69    67    68    1
   70    67    69    1
   71    69    70    1
   72    67    71    1
   73    71    72    1
   74    71    73    1
   75    73    74    1
   76    45    75    1
   77    71    75    1
   78    75    76    1
   79    75    77    1
   80    77    78    1
   81    64    79    1
   82    77    79    1
   83    77    80    1
   84    80    81    1
   85    80    82    1
   86    80    83    1
   87    83    84    1
   88    85    86    1
   89    85    87    1
   90    85    88    1
   91    88    89    1
   92    88    90    1
   93    90    91    1
   94    88    92    1
   95    92    93    1
   96    92    94    1
   97    94    95    1
   98    66    96    1
   99    92    96    1
  100    96    97    1
  101    96    98    1
  102    98    99    1
  103    85   100    1
  104    98   100    1
  105    98   101    1
  106   101   102    1
  107   101   103    1
  108   101   104    1
  109   104   105    1
  110   106   107    1
  111    12   108    1
  112   106   108    1
  113   106   109    1
  114   109   110    1
  115   109   111    1
  116   111   112    1
  117   109   113    1
  118   113   114    1
  119   113   115    1
  120   115   116    1
  121    87   117    1
  122   113   117    1
  123   117   118    1
  124   117   119    1
  125   119   120    1
  126   106   121    1
  127   119   121    1
  128   119   122    1
  129   122   123    1
  130   122   124    1
  131   122   125    1
  132   125   126    1
  133   127   128    1
  134   127   129    1
  135   127   130    1
  136   130   131    1
  137   130   132    1
  138   130   133    1
  139   133   134    1
  140   133   135    1
  141   133   136    1
  142   136   137    1
  143   127   138    1
  144   136   138    1
  145   138   139    1
  146   138   140    1
  147   136   141    1
  148   141   142    1
@<TRIPOS>SUBSTRUCTURE
       1 MOL1            1 RESIDUE      1      MOL     
       2 MOL1          142 RESIDUE      1      MOL     
@<SCITEGIC>MOL_PROPERTY
VM2 Rank
SciTegic.value.IntegerValue
6

@<SCITEGIC>MOL_PROPERTY
Conf_Id
SciTegic.value.IntegerValue
22446

@<SCITEGIC>MOL_PROPERTY
Probability
SciTegic.value.DoubleValue
0.86

@<SCITEGIC>MOL_PROPERTY
Sum Probability
SciTegic.value.DoubleValue
6.45

@<SCITEGIC>MOL_PROPERTY
Delta G
SciTegic.value.DoubleValue
0.269

@<SCITEGIC>MOL_PROPERTY
G
SciTegic.value.DoubleValue
549.633

@<SCITEGIC>MOL_PROPERTY
E
SciTegic.value.DoubleValue
365.873

@<SCITEGIC>MOL_PROPERTY
-TS
SciTegic.value.DoubleValue
183.760

@<SCITEGIC>MOL_PROPERTY
U+W
SciTegic.value.DoubleValue
240.679

@<SCITEGIC>MOL_PROPERTY
U
SciTegic.value.DoubleValue
274.425

@<SCITEGIC>MOL_PROPERTY
W
SciTegic.value.DoubleValue
-33.745

@<SCITEGIC>MOL_PROPERTY
W(PB)
SciTegic.value.DoubleValue
-39.866

@<SCITEGIC>MOL_PROPERTY
W(SA)
SciTegic.value.DoubleValue
6.121

@<SCITEGIC>MOL_PROPERTY
Valence
SciTegic.value.DoubleValue
158.093

@<SCITEGIC>MOL_PROPERTY
Coulomb
SciTegic.value.DoubleValue
139.980

@<SCITEGIC>MOL_PROPERTY
VdW
SciTegic.value.DoubleValue
-23.648

@<SCITEGIC>MOL_PROPERTY
VdW6
SciTegic.value.DoubleValue
-167.737

@<SCITEGIC>MOL_PROPERTY
VdW12
SciTegic.value.DoubleValue
144.089

@<SCITEGIC>MOL_PROPERTY
Bond
SciTegic.value.DoubleValue
4.262

@<SCITEGIC>MOL_PROPERTY
Angle
SciTegic.value.DoubleValue
12.316

@<SCITEGIC>MOL_PROPERTY
Pdih
SciTegic.value.DoubleValue
141.515

@<SCITEGIC>MOL_PROPERTY
Idih
SciTegic.value.DoubleValue
0.000

@<SCITEGIC>MOL_PROPERTY
Tether
SciTegic.value.DoubleValue
0.000

@<TRIPOS>MOLECULE
CD_guest-4_vm2_rndm.mol2 : vm2 host+ligand conformer 7
         142         148           2
SMALL
USER_CHARGES
 
@<TRIPOS>ATOM
       1    C1      16.199987   15.172845   21.010063 C.3        1 MOL1         0.2972
       2    H1      15.113362   15.053232   20.909845 H          1 MOL1         0.0751
       3    O1      16.562012   16.542854   21.279308 O.3        1 MOL1        -0.3740
       4    C2      16.764646   14.266698   22.135354 C.3        1 MOL1         0.1003
       5    H2      16.578520   13.226344   21.838421 H          1 MOL1         0.0783
       6    O2      16.118224   14.510032   23.393313 O.3        1 MOL1        -0.5519
       7    H3      16.248311   15.467783   23.611104 H          1 MOL1         0.3769
       8    C3      18.295499   14.459307   22.257218 C.3        1 MOL1         0.1053
       9    H4      18.483973   15.488247   22.588257 H          1 MOL1         0.0783
      10    O3      18.819699   13.537469   23.218062 O.3        1 MOL1        -0.5519
      11    H5      18.195128   13.575906   23.976506 H          1 MOL1         0.3769
      12    C4      18.994196   14.249241   20.890027 C.3        1 MOL1         0.1018
      13    H6      19.011893   13.172441   20.676292 H          1 MOL1         0.0783
      14    C5      18.285171   15.003009   19.729249 C.3        1 MOL1         0.1043
      15    H7      18.493848   16.076267   19.833735 H          1 MOL1         0.0783
      16    O4      16.853536   14.777477   19.785272 O.3        1 MOL1        -0.3740
      17    C6      18.771388   14.561947   18.330576 C.3        1 MOL1         0.0138
      18    H8      19.837766   14.801191   18.227795 H          1 MOL1         0.0794
      19    H9      18.232057   15.142610   17.570344 H          1 MOL1         0.0794
      20    O5      18.557993   13.161559   18.128729 O.3        1 MOL1        -0.5486
      21    H10     17.597185   13.007952   18.269393 H          1 MOL1         0.3769
      22    C7      15.092895   20.284822   22.214092 C.3        1 MOL1         0.2972
      23    H11     14.504467   21.157439   22.523570 H          1 MOL1         0.0751
      24    O6      16.337273   20.676405   21.598094 O.3        1 MOL1        -0.3740
      25    C8      15.393189   19.389313   23.442112 C.3        1 MOL1         0.1003
      26    H12     14.426902   19.046354   23.834036 H          1 MOL1         0.0783
      27    O7      16.077645   20.116824   24.472466 O.3        1 MOL1        -0.5519
      28    H13     16.924409   20.455876   24.086802 H          1 MOL1         0.3769
      29    C9      16.207499   18.142243   23.033059 C.3        1 MOL1         0.1053
      30    H14     17.199451   18.479708   22.710574 H          1 MOL1         0.0783
      31    O8      16.330804   17.276753   24.165229 O.3        1 MOL1        -0.5519
      32    H15     16.558314   17.871956   24.913516 H          1 MOL1         0.3769
      33    C10     15.543837   17.385044   21.855783 C.3        1 MOL1         0.1018
      34    H16     14.696989   16.802856   22.243152 H          1 MOL1         0.0783
      35    C11     15.066387   18.337618   20.724219 C.3        1 MOL1         0.1043
      36    H17     15.959359   18.681955   20.190036 H          1 MOL1         0.0783
      37    O9      14.354936   19.479662   21.268739 O.3        1 MOL1        -0.3740
      38    C12     14.141487   17.650613   19.695203 C.3        1 MOL1         0.0138
      39    H18     14.701856   16.856880   19.183387 H          1 MOL1         0.0794
      40    H19     13.850088   18.387088   18.934419 H          1 MOL1         0.0794
      41    O10     12.980817   17.104876   20.328582 O.3        1 MOL1        -0.5486
      42    H20     12.539974   17.853775   20.788484 H          1 MOL1         0.3769
      43    C13     18.448292   23.950910   20.344993 C.3        1 MOL1         0.2972
      44    H21     18.873328   24.856087   19.892203 H          1 MOL1         0.0751
      45    O11     19.455187   23.149747   20.993055 O.3        1 MOL1        -0.3740
      46    C14     17.354845   24.305230   21.379485 C.3        1 MOL1         0.1003
      47    H22     16.552280   24.823869   20.839173 H          1 MOL1         0.0783
      48    O12     17.867375   25.173533   22.402168 O.3        1 MOL1        -0.5519
      49    H23     18.674374   24.738697   22.779715 H          1 MOL1         0.3769
      50    C15     16.755339   23.021997   22.005144 C.3        1 MOL1         0.1053
      51    H24     17.525261   22.575480   22.647517 H          1 MOL1         0.0783
      52    O13     15.619262   23.390032   22.793680 O.3        1 MOL1        -0.5519
      53    H25     15.933338   24.118827   23.372650 H          1 MOL1         0.3769
      54    C16     16.350362   21.961548   20.938374 C.3        1 MOL1         0.1018
      55    H26     15.362156   22.211357   20.529457 H          1 MOL1         0.0783
      56    C17     17.360297   21.838623   19.760034 C.3        1 MOL1         0.1043
      57    H27     18.215002   21.230938   20.085575 H          1 MOL1         0.0783
      58    O14     17.811629   23.147343   19.335282 O.3        1 MOL1        -0.3740
      59    C18     16.727735   21.171817   18.520705 C.3        1 MOL1         0.0138
      60    H28     15.940872   21.825870   18.121479 H          1 MOL1         0.0794
      61    H29     16.255296   20.227687   18.810526 H          1 MOL1         0.0794
      62    O15     17.727953   20.930059   17.529559 O.3        1 MOL1        -0.5486
      63    H30     18.184669   21.789339   17.390124 H          1 MOL1         0.3769
      64    C19     23.483270   22.930839   21.839466 C.3        1 MOL1         0.2972
      65    H31     24.555241   23.102306   21.998465 H          1 MOL1         0.0751
      66    O16     23.148964   21.527793   21.884279 O.3        1 MOL1        -0.3740
      67    C20     22.647928   23.669303   22.914670 C.3        1 MOL1         0.1003
      68    H32     22.852676   24.742434   22.807202 H          1 MOL1         0.0783
      69    O17     23.018825   23.254536   24.238467 O.3        1 MOL1        -0.5519
      70    H33     23.090304   22.266281   24.233790 H          1 MOL1         0.3769
      71    C21     21.134568   23.451136   22.676924 C.3        1 MOL1         0.1053
      72    H34     20.908942   22.395223   22.861943 H          1 MOL1         0.0783
      73    O18     20.392550   24.271481   23.584879 O.3        1 MOL1        -0.5519
      74    H35     20.803401   24.113030   24.463480 H          1 MOL1         0.3769
      75    C22     20.730664   23.777623   21.217130 C.3        1 MOL1         0.1018
      76    H36     20.677165   24.869005   21.107978 H          1 MOL1         0.0783
      77    C23     21.713064   23.183341   20.168004 C.3        1 MOL1         0.1043
      78    H37     21.550722   22.098158   20.118517 H          1 MOL1         0.0783
      79    O19     23.083558   23.450788   20.554602 O.3        1 MOL1        -0.3740
      80    C24     21.505968   23.750729   18.746005 C.3        1 MOL1         0.0138
      81    H38     20.507973   23.465266   18.388098 H          1 MOL1         0.0794
      82    H39     22.239086   23.288598   18.071356 H          1 MOL1         0.0794
      83    O20     21.646377   25.174425   18.732007 O.3        1 MOL1        -0.5486
      84    H40     22.542214   25.365592   19.089039 H          1 MOL1         0.3769
      85    C25     24.821830   17.730206   22.187084 C.3        1 MOL1         0.2972
      86    H41     25.492863   16.873551   22.331345 H          1 MOL1         0.0751
      87    O21     23.550757   17.325357   21.642688 O.3        1 MOL1        -0.3740
      88    C26     24.583348   18.456047   23.535305 C.3        1 MOL1         0.1003
      89    H42     25.560272   18.810055   23.889377 H          1 MOL1         0.0783
      90    O22     24.023293   17.573395   24.520406 O.3        1 MOL1        -0.5519
      91    H43     23.941274   16.682074   24.100763 H          1 MOL1         0.3769
      92    C27     23.672426   19.689334   23.335898 C.3        1 MOL1         0.1053
      93    H44     22.679976   19.332320   23.034882 H          1 MOL1         0.0783
      94    O23     23.578150   20.405542   24.569920 O.3        1 MOL1        -0.5519
      95    H45     23.444650   19.706315   25.249036 H          1 MOL1         0.3769
      96    C28     24.212453   20.613102   22.215690 C.3        1 MOL1         0.1018
      97    H46     25.105341   21.133086   22.587362 H          1 MOL1         0.0783
      98    C29     24.566779   19.817190   20.929105 C.3        1 MOL1         0.1043
      99    H47     23.634063   19.473206   20.462360 H          1 MOL1         0.0783
     100    O24     25.406809   18.686590   21.278092 O.3        1 MOL1        -0.3740
     101    C30     25.340431   20.660184   19.894838 C.3        1 MOL1         0.0138
     102    H48     26.301918   20.970857   20.325025 H          1 MOL1         0.0794
     103    H49     24.768087   21.566646   19.659280 H          1 MOL1         0.0794
     104    O25     25.544802   19.895669   18.704778 O.3        1 MOL1        -0.5486
     105    H50     25.911133   19.029672   18.995057 H          1 MOL1         0.3769
     106    C31     21.406154   13.957626   20.568692 C.3        1 MOL1         0.2972
     107    H51     21.049727   12.994426   20.181827 H          1 MOL1         0.0751
     108    O26     20.320633   14.797478   21.012378 O.3        1 MOL1        -0.3740
     109    C32     22.360590   13.744666   21.769657 C.3        1 MOL1         0.1003
     110    H52     23.224949   13.173388   21.406842 H          1 MOL1         0.0783
     111    O27     21.715153   13.006080   22.819047 O.3        1 MOL1        -0.5519
     112    H53     20.795929   13.364247   22.913015 H          1 MOL1         0.3769
     113    C33     22.875406   15.104133   22.301041 C.3        1 MOL1         0.1053
     114    H54     22.020261   15.644532   22.727524 H          1 MOL1         0.0783
     115    O28     23.854970   14.872806   23.318586 O.3        1 MOL1        -0.5519
     116    H55     23.489641   14.133947   23.856463 H          1 MOL1         0.3769
     117    C34     23.473317   15.970507   21.160363 C.3        1 MOL1         0.1018
     118    H56     24.462745   15.581999   20.884737 H          1 MOL1         0.0783
     119    C35     22.577163   15.999662   19.891069 C.3        1 MOL1         0.1043
     120    H57     21.698843   16.624607   20.091545 H          1 MOL1         0.0783
     121    O29     22.145920   14.660133   19.548280 O.3        1 MOL1        -0.3740
     122    C36     23.302433   16.590965   18.661364 C.3        1 MOL1         0.0138
     123    H58     23.615983   17.618551   18.888523 H          1 MOL1         0.0794
     124    H59     22.594130   16.640617   17.823718 H          1 MOL1         0.0794
     125    O30     24.438048   15.797883   18.303057 O.3        1 MOL1        -0.5486
     126    H60     24.103870   14.880318   18.189653 H          1 MOL1         0.3769
     127    C1      20.064159   18.150187   22.355895 C.3        1 MOL1        -0.1689
     128    H1      19.178513   17.661450   21.930624 H          1 MOL1         0.0830
     129    H2      20.920239   17.894434   21.722885 H          1 MOL1         0.0830
     130    C2      20.291733   17.682789   23.804869 C.3        1 MOL1        -0.1689
     131    H3      21.367982   17.600405   24.000094 H          1 MOL1         0.0830
     132    H4      19.839018   16.703277   24.005883 H          1 MOL1         0.0830
     133    C3      19.697724   18.786766   24.692440 C.3        1 MOL1        -0.1765
     134    H5      20.195767   18.835211   25.668961 H          1 MOL1         0.0830
     135    H6      18.632401   18.592213   24.860855 H          1 MOL1         0.0830
     136    C4      19.876488   20.086229   23.897474 C.3        1 MOL1         0.1214
     137    H7      20.859817   20.516504   24.132713 H          1 MOL1         0.0787
     138    C5      19.850390   19.678106   22.413148 C.3        1 MOL1        -0.1765
     139    H8      18.891198   19.943191   21.953695 H          1 MOL1         0.0830
     140    H9      20.636956   20.205384   21.859505 H          1 MOL1         0.0830
     141    O1      18.829708   21.000383   24.192820 O.3        1 MOL1        -0.5512
     142    H10     18.976982   21.304864   25.110827 H          1 MOL1         0.3776
@<TRIPOS>BOND
    1     1     2    1
    2     1     3    1
    3     1     4    1
    4     4     5    1
    5     4     6    1
    6     6     7    1
    7     4     8    1
    8     8     9    1
    9     8    10    1
   10    10    11    1
   11     8    12    1
   12    12    13    1
   13    12    14    1
   14    14    15    1
   15     1    16    1
   16    14    16    1
   17    14    17    1
   18    17    18    1
   19    17    19    1
   20    17    20    1
   21    20    21    1
   22    22    23    1
   23    22    24    1
   24    22    25    1
   25    25    26    1
   26    25    27    1
   27    27    28    1
   28    25    29    1
   29    29    30    1
   30    29    31    1
   31    31    32    1
   32     3    33    1
   33    29    33    1
   34    33    34    1
   35    33    35    1
   36    35    36    1
   37    22    37    1
   38    35    37    1
   39    35    38    1
   40    38    39    1
   41    38    40    1
   42    38    41    1
   43    41    42    1
   44    43    44    1
   45    43    45    1
   46    43    46    1
   47    46    47    1
   48    46    48    1
   49    48    49    1
   50    46    50    1
   51    50    51    1
   52    50    52    1
   53    52    53    1
   54    24    54    1
   55    50    54    1
   56    54    55    1
   57    54    56    1
   58    56    57    1
   59    43    58    1
   60    56    58    1
   61    56    59    1
   62    59    60    1
   63    59    61    1
   64    59    62    1
   65    62    63    1
   66    64    65    1
   67    64    66    1
   68    64    67    1
   69    67    68    1
   70    67    69    1
   71    69    70    1
   72    67    71    1
   73    71    72    1
   74    71    73    1
   75    73    74    1
   76    45    75    1
   77    71    75    1
   78    75    76    1
   79    75    77    1
   80    77    78    1
   81    64    79    1
   82    77    79    1
   83    77    80    1
   84    80    81    1
   85    80    82    1
   86    80    83    1
   87    83    84    1
   88    85    86    1
   89    85    87    1
   90    85    88    1
   91    88    89    1
   92    88    90    1
   93    90    91    1
   94    88    92    1
   95    92    93    1
   96    92    94    1
   97    94    95    1
   98    66    96    1
   99    92    96    1
  100    96    97    1
  101    96    98    1
  102    98    99    1
  103    85   100    1
  104    98   100    1
  105    98   101    1
  106   101   102    1
  107   101   103    1
  108   101   104    1
  109   104   105    1
  110   106   107    1
  111    12   108    1
  112   106   108    1
  113   106   109    1
  114   109   110    1
  115   109   111    1
  116   111   112    1
  117   109   113    1
  118   113   114    1
  119   113   115    1
  120   115   116    1
  121    87   117    1
  122   113   117    1
  123   117   118    1
  124   117   119    1
  125   119   120    1
  126   106   121    1
  127   119   121    1
  128   119   122    1
  129   122   123    1
  130   122   124    1
  131   122   125    1
  132   125   126    1
  133   127   128    1
  134   127   129    1
  135   127   130    1
  136   130   131    1
  137   130   132    1
  138   130   133    1
  139   133   134    1
  140   133   135    1
  141   133   136    1
  142   136   137    1
  143   127   138    1
  144   136   138    1
  145   138   139    1
  146   138   140    1
  147   136   141    1
  148   141   142    1
@<TRIPOS>SUBSTRUCTURE
       1 MOL1            1 RESIDUE      1      MOL     
       2 MOL1          142 RESIDUE      1      MOL     
@<SCITEGIC>MOL_PROPERTY
VM2 Rank
SciTegic.value.IntegerValue
7

@<SCITEGIC>MOL_PROPERTY
Conf_Id
SciTegic.value.IntegerValue
23087

@<SCITEGIC>MOL_PROPERTY
Probability
SciTegic.value.DoubleValue
0.76

@<SCITEGIC>MOL_PROPERTY
Sum Probability
SciTegic.value.DoubleValue
7.21

@<SCITEGIC>MOL_PROPERTY
Delta G
SciTegic.value.DoubleValue
0.343

@<SCITEGIC>MOL_PROPERTY
G
SciTegic.value.DoubleValue
549.707

@<SCITEGIC>MOL_PROPERTY
E
SciTegic.value.DoubleValue
365.600

@<SCITEGIC>MOL_PROPERTY
-TS
SciTegic.value.DoubleValue
184.107

@<SCITEGIC>MOL_PROPERTY
U+W
SciTegic.value.DoubleValue
240.406

@<SCITEGIC>MOL_PROPERTY
U
SciTegic.value.DoubleValue
273.777

@<SCITEGIC>MOL_PROPERTY
W
SciTegic.value.DoubleValue
-33.370

@<SCITEGIC>MOL_PROPERTY
W(PB)
SciTegic.value.DoubleValue
-39.492

@<SCITEGIC>MOL_PROPERTY
W(SA)
SciTegic.value.DoubleValue
6.122

@<SCITEGIC>MOL_PROPERTY
Valence
SciTegic.value.DoubleValue
158.985

@<SCITEGIC>MOL_PROPERTY
Coulomb
SciTegic.value.DoubleValue
139.206

@<SCITEGIC>MOL_PROPERTY
VdW
SciTegic.value.DoubleValue
-24.414

@<SCITEGIC>MOL_PROPERTY
VdW6
SciTegic.value.DoubleValue
-169.288

@<SCITEGIC>MOL_PROPERTY
VdW12
SciTegic.value.DoubleValue
144.874

@<SCITEGIC>MOL_PROPERTY
Bond
SciTegic.value.DoubleValue
4.321

@<SCITEGIC>MOL_PROPERTY
Angle
SciTegic.value.DoubleValue
12.357

@<SCITEGIC>MOL_PROPERTY
Pdih
SciTegic.value.DoubleValue
142.307

@<SCITEGIC>MOL_PROPERTY
Idih
SciTegic.value.DoubleValue
0.000

@<SCITEGIC>MOL_PROPERTY
Tether
SciTegic.value.DoubleValue
0.000

@<TRIPOS>MOLECULE
CD_guest-4_vm2_rndm.mol2 : vm2 host+ligand conformer 8
         142         148           2
SMALL
USER_CHARGES
 
@<TRIPOS>ATOM
       1    C1      16.195195   15.131936   20.977363 C.3        1 MOL1         0.2972
       2    H1      15.115868   15.010365   20.817925 H          1 MOL1         0.0751
       3    O1      16.532482   16.488441   21.328957 O.3        1 MOL1        -0.3740
       4    C2      16.708047   14.183032   22.091555 C.3        1 MOL1         0.1003
       5    H2      16.520470   13.155107   21.755065 H          1 MOL1         0.0783
       6    O2      16.017964   14.398596   23.331811 O.3        1 MOL1        -0.5519
       7    H3      16.113934   15.357705   23.561997 H          1 MOL1         0.3769
       8    C3      18.235253   14.350727   22.279917 C.3        1 MOL1         0.1053
       9    H4      18.420397   15.358428   22.671948 H          1 MOL1         0.0783
      10    O3      18.714594   13.373911   23.209385 O.3        1 MOL1        -0.5519
      11    H5      18.067041   13.384997   23.949183 H          1 MOL1         0.3769
      12    C4      18.989647   14.208870   20.933796 C.3        1 MOL1         0.1018
      13    H6      18.996304   13.148589   20.648509 H          1 MOL1         0.0783
      14    C5      18.341967   15.042663   19.793461 C.3        1 MOL1         0.1043
      15    H7      18.544061   16.107375   19.968579 H          1 MOL1         0.0783
      16    O4      16.912773   14.796753   19.770830 O.3        1 MOL1        -0.3740
      17    C6      18.891435   14.668014   18.401078 C.3        1 MOL1         0.0138
      18    H8      18.674096   13.611025   18.197218 H          1 MOL1         0.0794
      19    H9      19.980927   14.794527   18.391186 H          1 MOL1         0.0794
      20    O5      18.300626   15.502776   17.403440 O.3        1 MOL1        -0.5486
      21    H10     17.330266   15.462427   17.557744 H          1 MOL1         0.3769
      22    C7      14.952590   20.202613   22.190732 C.3        1 MOL1         0.2972
      23    H11     14.335445   21.067393   22.466147 H          1 MOL1         0.0751
      24    O6      16.234997   20.612790   21.674269 O.3        1 MOL1        -0.3740
      25    C8      15.163515   19.291036   23.425390 C.3        1 MOL1         0.1003
      26    H12     14.172903   18.934181   23.735543 H          1 MOL1         0.0783
      27    O7      15.758952   20.008737   24.514982 O.3        1 MOL1        -0.5519
      28    H13     16.651542   20.309237   24.209508 H          1 MOL1         0.3769
      29    C9      16.020828   18.058601   23.063653 C.3        1 MOL1         0.1053
      30    H14     17.032644   18.409392   22.824347 H          1 MOL1         0.0783
      31    O8      16.060715   17.174275   24.188080 O.3        1 MOL1        -0.5519
      32    H15     16.265293   17.753308   24.955964 H          1 MOL1         0.3769
      33    C10     15.461459   17.314575   21.826547 C.3        1 MOL1         0.1018
      34    H16     14.592072   16.720021   22.137652 H          1 MOL1         0.0783
      35    C11     15.067045   18.280099   20.673776 C.3        1 MOL1         0.1043
      36    H17     15.996414   18.642457   20.218103 H          1 MOL1         0.0783
      37    O9      14.299802   19.404976   21.178521 O.3        1 MOL1        -0.3740
      38    C12     14.235728   17.601973   19.562308 C.3        1 MOL1         0.0138
      39    H18     14.845832   16.826119   19.081140 H          1 MOL1         0.0794
      40    H19     13.994711   18.349736   18.794926 H          1 MOL1         0.0794
      41    O10     13.036697   17.028862   20.091481 O.3        1 MOL1        -0.5486
      42    H20     12.549685   17.762896   20.528125 H          1 MOL1         0.3769
      43    C13     18.382465   23.956850   20.575154 C.3        1 MOL1         0.2972
      44    H21     18.762059   24.902155   20.166418 H          1 MOL1         0.0751
      45    O11     19.438711   23.141388   21.118175 O.3        1 MOL1        -0.3740
      46    C14     17.358328   24.222428   21.702753 C.3        1 MOL1         0.1003
      47    H22     16.533639   24.800612   21.266236 H          1 MOL1         0.0783
      48    O12     17.957371   24.982284   22.765322 O.3        1 MOL1        -0.5519
      49    H23     18.838819   24.572932   22.958590 H          1 MOL1         0.3769
      50    C15     16.773939   22.895446   22.247505 C.3        1 MOL1         0.1053
      51    H24     17.568960   22.384023   22.806082 H          1 MOL1         0.0783
      52    O13     15.683435   23.203234   23.121305 O.3        1 MOL1        -0.5519
      53    H25     16.041280   23.858220   23.759514 H          1 MOL1         0.3769
      54    C16     16.297734   21.941702   21.114791 C.3        1 MOL1         0.1018
      55    H26     15.316465   22.270040   20.746675 H          1 MOL1         0.0783
      56    C17     17.280505   21.875647   19.912768 C.3        1 MOL1         0.1043
      57    H27     18.146918   21.260484   20.190034 H          1 MOL1         0.0783
      58    O14     17.704573   23.210167   19.547985 O.3        1 MOL1        -0.3740
      59    C18     16.622423   21.265930   18.657482 C.3        1 MOL1         0.0138
      60    H28     15.801007   21.916428   18.328261 H          1 MOL1         0.0794
      61    H29     16.191230   20.290235   18.905103 H          1 MOL1         0.0794
      62    O15     17.591552   21.119835   17.617912 O.3        1 MOL1        -0.5486
      63    H30     17.999405   22.006307   17.502253 H          1 MOL1         0.3769
      64    C19     23.561423   22.818923   21.272385 C.3        1 MOL1         0.2972
      65    H31     24.648201   22.966842   21.225233 H          1 MOL1         0.0751
      66    O16     23.221708   21.429402   21.458978 O.3        1 MOL1        -0.3740
      67    C20     22.931649   23.653889   22.418307 C.3        1 MOL1         0.1003
      68    H32     23.118176   24.711180   22.189246 H          1 MOL1         0.0783
      69    O17     23.521961   23.345816   23.689917 O.3        1 MOL1        -0.5519
      70    H33     23.410463   22.372972   23.840356 H          1 MOL1         0.3769
      71    C21     21.399174   23.440796   22.458546 C.3        1 MOL1         0.1053
      72    H34     21.204844   22.395938   22.729388 H          1 MOL1         0.0783
      73    O18     20.818045   24.313094   23.433648 O.3        1 MOL1        -0.5519
      74    H35     21.394178   24.232582   24.226005 H          1 MOL1         0.3769
      75    C22     20.761746   23.706280   21.073012 C.3        1 MOL1         0.1018
      76    H36     20.739642   24.791962   20.910293 H          1 MOL1         0.0783
      77    C23     21.530672   23.012430   19.912838 C.3        1 MOL1         0.1043
      78    H37     21.338023   21.932432   19.965669 H          1 MOL1         0.0783
      79    O19     22.952975   23.260963   20.040746 O.3        1 MOL1        -0.3740
      80    C24     21.099241   23.499147   18.511289 C.3        1 MOL1         0.0138
      81    H38     20.050968   23.223105   18.341620 H          1 MOL1         0.0794
      82    H39     21.699544   22.975016   17.755676 H          1 MOL1         0.0794
      83    O20     21.264236   24.914454   18.381644 O.3        1 MOL1        -0.5486
      84    H40     22.212064   25.098551   18.566438 H          1 MOL1         0.3769
      85    C25     24.818254   17.699369   22.234184 C.3        1 MOL1         0.2972
      86    H41     25.437473   16.834164   22.503494 H          1 MOL1         0.0751
      87    O21     23.613946   17.300305   21.547148 O.3        1 MOL1        -0.3740
      88    C26     24.436078   18.506988   23.501058 C.3        1 MOL1         0.1003
      89    H42     25.372037   18.867942   23.947018 H          1 MOL1         0.0783
      90    O22     23.742038   17.699299   24.464391 O.3        1 MOL1        -0.5519
      91    H43     23.832380   16.759328   24.175409 H          1 MOL1         0.3769
      92    C27     23.578502   19.736502   23.125536 C.3        1 MOL1         0.1053
      93    H44     22.616854   19.373197   22.744074 H          1 MOL1         0.0783
      94    O23     23.367368   20.526466   24.298802 O.3        1 MOL1        -0.5519
      95    H45     23.168445   19.867423   25.001364 H          1 MOL1         0.3769
      96    C28     24.248991   20.586544   22.017380 C.3        1 MOL1         0.1018
      97    H46     25.059090   21.172774   22.471489 H          1 MOL1         0.0783
      98    C29     24.807385   19.721000   20.851101 C.3        1 MOL1         0.1043
      99    H47     23.958683   19.356446   20.257416 H          1 MOL1         0.0783
     100    O24     25.553965   18.591667   21.370258 O.3        1 MOL1        -0.3740
     101    C30     25.738761   20.504419   19.899344 C.3        1 MOL1         0.0138
     102    H48     25.160522   21.295052   19.402913 H          1 MOL1         0.0794
     103    H49     26.098155   19.822683   19.116827 H          1 MOL1         0.0794
     104    O25     26.843462   21.073087   20.608559 O.3        1 MOL1        -0.5486
     105    H50     27.305042   20.323178   21.045895 H          1 MOL1         0.3769
     106    C31     21.413567   13.856258   20.794230 C.3        1 MOL1         0.2972
     107    H51     21.068184   12.858510   20.495937 H          1 MOL1         0.0751
     108    O26     20.318172   14.719087   21.159887 O.3        1 MOL1        -0.3740
     109    C32     22.365530   13.749141   22.009792 C.3        1 MOL1         0.1003
     110    H52     23.220343   13.132603   21.702588 H          1 MOL1         0.0783
     111    O27     21.708158   13.120002   23.121444 O.3        1 MOL1        -0.5519
     112    H53     20.763239   13.417349   23.113118 H          1 MOL1         0.3769
     113    C33     22.907175   15.140409   22.418130 C.3        1 MOL1         0.1053
     114    H54     22.067674   15.728215   22.810079 H          1 MOL1         0.0783
     115    O28     23.893266   14.961974   23.440407 O.3        1 MOL1        -0.5519
     116    H55     23.521357   14.264105   24.027101 H          1 MOL1         0.3769
     117    C34     23.501304   15.904497   21.201644 C.3        1 MOL1         0.1018
     118    H56     24.478859   15.479217   20.938350 H          1 MOL1         0.0783
     119    C35     22.573330   15.841049   19.957000 C.3        1 MOL1         0.1043
     120    H57     21.697436   16.477234   20.141076 H          1 MOL1         0.0783
     121    O29     22.146126   14.476970   19.719018 O.3        1 MOL1        -0.3740
     122    C36     23.259501   16.346450   18.668479 C.3        1 MOL1         0.0138
     123    H58     23.579716   17.386298   18.816045 H          1 MOL1         0.0794
     124    H59     22.524619   16.340244   17.852347 H          1 MOL1         0.0794
     125    O30     24.382945   15.528155   18.329413 O.3        1 MOL1        -0.5486
     126    H60     24.046845   14.604597   18.300128 H          1 MOL1         0.3769
     127    C1      19.984566   18.049645   22.367703 C.3        1 MOL1        -0.1689
     128    H1      19.321381   17.543476   21.655101 H          1 MOL1         0.0830
     129    H2      21.019546   17.859225   22.060121 H          1 MOL1         0.0830
     130    C2      19.775371   17.545792   23.803800 C.3        1 MOL1        -0.1689
     131    H3      20.367421   16.649132   24.026856 H          1 MOL1         0.0830
     132    H4      18.719926   17.299200   23.962121 H          1 MOL1         0.0830
     133    C3      20.157434   18.732907   24.699945 C.3        1 MOL1        -0.1765
     134    H5      21.233568   18.700162   24.905226 H          1 MOL1         0.0830
     135    H6      19.633454   18.699211   25.663787 H          1 MOL1         0.0830
     136    C4      19.833289   20.003486   23.893880 C.3        1 MOL1         0.1214
     137    H7      20.640787   20.736554   24.021506 H          1 MOL1         0.0787
     138    C5      19.727856   19.570234   22.416534 C.3        1 MOL1        -0.1765
     139    H8      18.730347   19.796541   22.023096 H          1 MOL1         0.0830
     140    H9      20.453906   20.111137   21.796665 H          1 MOL1         0.0830
     141    O1      18.596062   20.549439   24.335071 O.3        1 MOL1        -0.5512
     142    H10     18.735815   20.825950   25.262915 H          1 MOL1         0.3776
@<TRIPOS>BOND
    1     1     2    1
    2     1     3    1
    3     1     4    1
    4     4     5    1
    5     4     6    1
    6     6     7    1
    7     4     8    1
    8     8     9    1
    9     8    10    1
   10    10    11    1
   11     8    12    1
   12    12    13    1
   13    12    14    1
   14    14    15    1
   15     1    16    1
   16    14    16    1
   17    14    17    1
   18    17    18    1
   19    17    19    1
   20    17    20    1
   21    20    21    1
   22    22    23    1
   23    22    24    1
   24    22    25    1
   25    25    26    1
   26    25    27    1
   27    27    28    1
   28    25    29    1
   29    29    30    1
   30    29    31    1
   31    31    32    1
   32     3    33    1
   33    29    33    1
   34    33    34    1
   35    33    35    1
   36    35    36    1
   37    22    37    1
   38    35    37    1
   39    35    38    1
   40    38    39    1
   41    38    40    1
   42    38    41    1
   43    41    42    1
   44    43    44    1
   45    43    45    1
   46    43    46    1
   47    46    47    1
   48    46    48    1
   49    48    49    1
   50    46    50    1
   51    50    51    1
   52    50    52    1
   53    52    53    1
   54    24    54    1
   55    50    54    1
   56    54    55    1
   57    54    56    1
   58    56    57    1
   59    43    58    1
   60    56    58    1
   61    56    59    1
   62    59    60    1
   63    59    61    1
   64    59    62    1
   65    62    63    1
   66    64    65    1
   67    64    66    1
   68    64    67    1
   69    67    68    1
   70    67    69    1
   71    69    70    1
   72    67    71    1
   73    71    72    1
   74    71    73    1
   75    73    74    1
   76    45    75    1
   77    71    75    1
   78    75    76    1
   79    75    77    1
   80    77    78    1
   81    64    79    1
   82    77    79    1
   83    77    80    1
   84    80    81    1
   85    80    82    1
   86    80    83    1
   87    83    84    1
   88    85    86    1
   89    85    87    1
   90    85    88    1
   91    88    89    1
   92    88    90    1
   93    90    91    1
   94    88    92    1
   95    92    93    1
   96    92    94    1
   97    94    95    1
   98    66    96    1
   99    92    96    1
  100    96    97    1
  101    96    98    1
  102    98    99    1
  103    85   100    1
  104    98   100    1
  105    98   101    1
  106   101   102    1
  107   101   103    1
  108   101   104    1
  109   104   105    1
  110   106   107    1
  111    12   108    1
  112   106   108    1
  113   106   109    1
  114   109   110    1
  115   109   111    1
  116   111   112    1
  117   109   113    1
  118   113   114    1
  119   113   115    1
  120   115   116    1
  121    87   117    1
  122   113   117    1
  123   117   118    1
  124   117   119    1
  125   119   120    1
  126   106   121    1
  127   119   121    1
  128   119   122    1
  129   122   123    1
  130   122   124    1
  131   122   125    1
  132   125   126    1
  133   127   128    1
  134   127   129    1
  135   127   130    1
  136   130   131    1
  137   130   132    1
  138   130   133    1
  139   133   134    1
  140   133   135    1
  141   133   136    1
  142   136   137    1
  143   127   138    1
  144   136   138    1
  145   138   139    1
  146   138   140    1
  147   136   141    1
  148   141   142    1
@<TRIPOS>SUBSTRUCTURE
       1 MOL1            1 RESIDUE      1      MOL     
       2 MOL1          142 RESIDUE      1      MOL     
@<SCITEGIC>MOL_PROPERTY
VM2 Rank
SciTegic.value.IntegerValue
8

@<SCITEGIC>MOL_PROPERTY
Conf_Id
SciTegic.value.IntegerValue
7754

@<SCITEGIC>MOL_PROPERTY
Probability
SciTegic.value.DoubleValue
0.74

@<SCITEGIC>MOL_PROPERTY
Sum Probability
SciTegic.value.DoubleValue
7.94

@<SCITEGIC>MOL_PROPERTY
Delta G
SciTegic.value.DoubleValue
0.361

@<SCITEGIC>MOL_PROPERTY
G
SciTegic.value.DoubleValue
549.724

@<SCITEGIC>MOL_PROPERTY
E
SciTegic.value.DoubleValue
365.614

@<SCITEGIC>MOL_PROPERTY
-TS
SciTegic.value.DoubleValue
184.110

@<SCITEGIC>MOL_PROPERTY
U+W
SciTegic.value.DoubleValue
240.420

@<SCITEGIC>MOL_PROPERTY
U
SciTegic.value.DoubleValue
274.443

@<SCITEGIC>MOL_PROPERTY
W
SciTegic.value.DoubleValue
-34.023

@<SCITEGIC>MOL_PROPERTY
W(PB)
SciTegic.value.DoubleValue
-40.099

@<SCITEGIC>MOL_PROPERTY
W(SA)
SciTegic.value.DoubleValue
6.076

@<SCITEGIC>MOL_PROPERTY
Valence
SciTegic.value.DoubleValue
157.777

@<SCITEGIC>MOL_PROPERTY
Coulomb
SciTegic.value.DoubleValue
140.351

@<SCITEGIC>MOL_PROPERTY
VdW
SciTegic.value.DoubleValue
-23.685

@<SCITEGIC>MOL_PROPERTY
VdW6
SciTegic.value.DoubleValue
-168.016

@<SCITEGIC>MOL_PROPERTY
VdW12
SciTegic.value.DoubleValue
144.331

@<SCITEGIC>MOL_PROPERTY
Bond
SciTegic.value.DoubleValue
4.264

@<SCITEGIC>MOL_PROPERTY
Angle
SciTegic.value.DoubleValue
12.278

@<SCITEGIC>MOL_PROPERTY
Pdih
SciTegic.value.DoubleValue
141.235

@<SCITEGIC>MOL_PROPERTY
Idih
SciTegic.value.DoubleValue
0.000

@<SCITEGIC>MOL_PROPERTY
Tether
SciTegic.value.DoubleValue
0.000

