@<TRIPOS>MOLECULE
CD_guest-s22_vm2_rndm.mol2 : vm2 host+ligand conformer 1
         146         151           2
SMALL
USER_CHARGES
 
@<TRIPOS>ATOM
       1    C1      16.207371   15.307000   21.707091 C.3        1 MOL1         0.2972
       2    H1      15.132823   15.168804   21.881474 H          1 MOL1         0.0751
       3    O1      16.496227   16.604206   21.147066 O.3        1 MOL1        -0.3740
       4    C2      16.992893   15.140377   23.031159 C.3        1 MOL1         0.1003
       5    H2      16.828682   14.112393   23.379655 H          1 MOL1         0.0783
       6    O2      16.536952   16.051788   24.039662 O.3        1 MOL1        -0.5519
       7    H3      17.227643   16.008554   24.738701 H          1 MOL1         0.3769
       8    C3      18.509394   15.320990   22.796652 C.3        1 MOL1         0.1053
       9    H4      18.696056   16.369553   22.527904 H          1 MOL1         0.0783
      10    O3      19.211668   14.986425   23.999272 O.3        1 MOL1        -0.5519
      11    H5      20.107678   14.676917   23.724350 H          1 MOL1         0.3769
      12    C4      19.018042   14.429265   21.636803 C.3        1 MOL1         0.1018
      13    H6      19.113339   13.399052   22.005895 H          1 MOL1         0.0783
      14    C5      18.087285   14.464359   20.388958 C.3        1 MOL1         0.1043
      15    H7      18.215757   15.433614   19.890913 H          1 MOL1         0.0783
      16    O4      16.703133   14.307933   20.790913 O.3        1 MOL1        -0.3740
      17    C6      18.399228   13.366217   19.347961 C.3        1 MOL1         0.0138
      18    H8      19.395876   13.546206   18.923951 H          1 MOL1         0.0794
      19    H9      17.676962   13.446452   18.524453 H          1 MOL1         0.0794
      20    O5      18.339315   12.063049   19.934920 O.3        1 MOL1        -0.5486
      21    H10     17.435229   11.971263   20.310027 H          1 MOL1         0.3769
      22    C7      14.757631   20.252419   20.379625 C.3        1 MOL1         0.2972
      23    H11     14.158263   21.115439   20.062344 H          1 MOL1         0.0751
      24    O6      16.076591   20.652225   20.809142 O.3        1 MOL1        -0.3740
      25    C8      14.051519   19.464380   21.514269 C.3        1 MOL1         0.1003
      26    H12     13.124557   19.053066   21.094692 H          1 MOL1         0.0783
      27    O7      13.713458   20.328353   22.609856 O.3        1 MOL1        -0.5519
      28    H13     14.563919   20.577212   23.049809 H          1 MOL1         0.3769
      29    C9      14.937045   18.271343   21.964372 C.3        1 MOL1         0.1053
      30    H14     15.845974   18.678697   22.428647 H          1 MOL1         0.0783
      31    O8      14.236062   17.459332   22.913747 O.3        1 MOL1        -0.5519
      32    H15     14.932379   16.966345   23.413272 H          1 MOL1         0.3769
      33    C10     15.363100   17.398880   20.748169 C.3        1 MOL1         0.1018
      34    H16     14.520386   16.766521   20.438733 H          1 MOL1         0.0783
      35    C11     15.832180   18.233743   19.523344 C.3        1 MOL1         0.1043
      36    H17     16.835323   18.625824   19.730924 H          1 MOL1         0.0783
      37    O9      14.921000   19.334580   19.279607 O.3        1 MOL1        -0.3740
      38    C12     15.924045   17.399063   18.227162 C.3        1 MOL1         0.0138
      39    H18     16.621910   16.566396   18.386379 H          1 MOL1         0.0794
      40    H19     16.341173   18.030351   17.431235 H          1 MOL1         0.0794
      41    O10     14.638814   16.900606   17.843734 O.3        1 MOL1        -0.5486
      42    H20     14.045685   17.683713   17.803227 H          1 MOL1         0.3769
      43    C13     18.401960   23.814304   22.024626 C.3        1 MOL1         0.2972
      44    H21     18.823610   24.765934   22.371676 H          1 MOL1         0.0751
      45    O11     19.424828   22.935215   21.508158 O.3        1 MOL1        -0.3740
      46    C14     17.675679   23.096987   23.189339 C.3        1 MOL1         0.1003
      47    H22     16.854868   23.748086   23.516633 H          1 MOL1         0.0783
      48    O12     18.588966   22.907994   24.283987 O.3        1 MOL1        -0.5519
      49    H23     18.295740   22.112688   24.799594 H          1 MOL1         0.3769
      50    C15     17.052984   21.760673   22.704881 C.3        1 MOL1         0.1053
      51    H24     17.868057   21.062804   22.477725 H          1 MOL1         0.0783
      52    O13     16.212021   21.213174   23.728298 O.3        1 MOL1        -0.5519
      53    H25     16.809751   20.887903   24.450921 H          1 MOL1         0.3769
      54    C16     16.211531   21.952782   21.412933 C.3        1 MOL1         0.1018
      55    H26     15.238332   22.380742   21.687526 H          1 MOL1         0.0783
      56    C17     16.903878   22.855894   20.354528 C.3        1 MOL1         0.1043
      57    H27     17.722196   22.282435   19.900195 H          1 MOL1         0.0783
      58    O14     17.434207   24.047592   20.981556 O.3        1 MOL1        -0.3740
      59    C18     15.962793   23.302008   19.213418 C.3        1 MOL1         0.0138
      60    H28     15.640447   22.417205   18.648683 H          1 MOL1         0.0794
      61    H29     16.526878   23.942404   18.522034 H          1 MOL1         0.0794
      62    O15     14.825211   24.003511   19.723592 O.3        1 MOL1        -0.5486
      63    H30     15.179170   24.758251   20.244833 H          1 MOL1         0.3769
      64    C19     23.580751   22.775093   21.211351 C.3        1 MOL1         0.2972
      65    H31     24.638037   22.993423   21.014141 H          1 MOL1         0.0751
      66    O16     23.375377   21.394187   21.563652 O.3        1 MOL1        -0.3740
      67    C20     23.046896   23.653457   22.371339 C.3        1 MOL1         0.1003
      68    H32     23.161085   24.702947   22.070386 H          1 MOL1         0.0783
      69    O17     23.783038   23.424327   23.581108 O.3        1 MOL1        -0.5519
      70    H33     23.277550   23.908871   24.272206 H          1 MOL1         0.3769
      71    C21     21.542812   23.387014   22.617991 C.3        1 MOL1         0.1053
      72    H34     21.440219   22.356930   22.983897 H          1 MOL1         0.0783
      73    O18     21.061030   24.299959   23.611360 O.3        1 MOL1        -0.5519
      74    H35     20.221186   23.904626   23.955404 H          1 MOL1         0.3769
      75    C22     20.726921   23.516108   21.301174 C.3        1 MOL1         0.1018
      76    H36     20.650382   24.572892   21.012960 H          1 MOL1         0.0783
      77    C23     21.380968   22.723230   20.137241 C.3        1 MOL1         0.1043
      78    H37     21.264842   21.649039   20.336956 H          1 MOL1         0.0783
      79    O19     22.787064   23.060138   20.040903 O.3        1 MOL1        -0.3740
      80    C24     20.739284   23.023620   18.764362 C.3        1 MOL1         0.0138
      81    H38     19.675288   22.757240   18.798187 H          1 MOL1         0.0794
      82    H39     21.214033   22.385348   18.007345 H          1 MOL1         0.0794
      83    O20     20.891876   24.402428   18.414664 O.3        1 MOL1        -0.5486
      84    H40     21.852671   24.596096   18.490938 H          1 MOL1         0.3769
      85    C25     25.180656   17.701148   21.698261 C.3        1 MOL1         0.2972
      86    H41     25.855956   16.836831   21.727882 H          1 MOL1         0.0751
      87    O21     23.802851   17.302369   21.554601 O.3        1 MOL1        -0.3740
      88    C26     25.325044   18.532179   22.996597 C.3        1 MOL1         0.1003
      89    H42     26.359039   18.898491   23.039114 H          1 MOL1         0.0783
      90    O22     25.058939   17.737433   24.160214 O.3        1 MOL1        -0.5519
      91    H43     24.989208   18.389698   24.893415 H          1 MOL1         0.3769
      92    C27     24.386765   19.759206   22.967449 C.3        1 MOL1         0.1053
      93    H44     23.351941   19.396917   23.016153 H          1 MOL1         0.0783
      94    O23     24.663802   20.601242   24.093098 O.3        1 MOL1        -0.5519
      95    H45     24.211248   21.463266   23.919396 H          1 MOL1         0.3769
      96    C28     24.553121   20.574220   21.661487 C.3        1 MOL1         0.1018
      97    H46     25.469079   21.174503   21.742393 H          1 MOL1         0.0783
      98    C29     24.610681   19.686399   20.385778 C.3        1 MOL1         0.1043
      99    H47     23.598508   19.313168   20.179707 H          1 MOL1         0.0783
     100    O24     25.511007   18.568641   20.593353 O.3        1 MOL1        -0.3740
     101    C30     25.093113   20.446582   19.130488 C.3        1 MOL1         0.0138
     102    H48     24.373519   21.240201   18.891051 H          1 MOL1         0.0794
     103    H49     25.105802   19.750990   18.280730 H          1 MOL1         0.0794
     104    O25     26.394794   21.004349   19.334112 O.3        1 MOL1        -0.5486
     105    H50     26.979125   20.252592   19.579095 H          1 MOL1         0.3769
     106    C31     21.330009   14.027013   20.938966 C.3        1 MOL1         0.2972
     107    H51     20.911528   13.047614   20.673986 H          1 MOL1         0.0751
     108    O26     20.291780   14.977398   21.247159 O.3        1 MOL1        -0.3740
     109    C32     22.293892   13.906080   22.149936 C.3        1 MOL1         0.1003
     110    H52     23.096066   13.215602   21.858543 H          1 MOL1         0.0783
     111    O27     21.630081   13.390388   23.311100 O.3        1 MOL1        -0.5519
     112    H53     22.300540   13.450418   24.028579 H          1 MOL1         0.3769
     113    C33     22.941650   15.269805   22.485697 C.3        1 MOL1         0.1053
     114    H54     22.154616   15.938805   22.860519 H          1 MOL1         0.0783
     115    O28     23.944332   15.086438   23.492692 O.3        1 MOL1        -0.5519
     116    H55     24.272077   15.989205   23.732470 H          1 MOL1         0.3769
     117    C34     23.569523   15.920833   21.228153 C.3        1 MOL1         0.1018
     118    H56     24.497109   15.394057   20.967763 H          1 MOL1         0.0783
     119    C35     22.613444   15.893018   20.007073 C.3        1 MOL1         0.1043
     120    H57     21.794886   16.599374   20.191898 H          1 MOL1         0.0783
     121    O29     22.085482   14.554627   19.828582 O.3        1 MOL1        -0.3740
     122    C36     23.303529   16.303944   18.687886 C.3        1 MOL1         0.0138
     123    H58     23.701106   17.321677   18.791388 H          1 MOL1         0.0794
     124    H59     22.550367   16.325172   17.888961 H          1 MOL1         0.0794
     125    O30     24.356472   15.394461   18.354371 O.3        1 MOL1        -0.5486
     126    H60     23.952137   14.498365   18.360905 H          1 MOL1         0.3769
     127    C1      20.047083   18.980915   18.522808 C.2        1 MOL1        -0.2535
     128    H1      20.132692   20.064819   18.497019 H          1 MOL1         0.0845
     129    H2      20.255792   18.438453   17.602766 H          1 MOL1         0.0845
     130    C2      19.699307   18.337150   19.639453 C.2        1 MOL1        -0.1324
     131    H3      19.616096   17.252057   19.645302 H          1 MOL1         0.0833
     132    C3      19.391676   19.018872   20.953063 C.3        1 MOL1        -0.1813
     133    H4      18.472415   18.595049   21.373402 H          1 MOL1         0.0753
     134    H5      19.200900   20.087396   20.788898 H          1 MOL1         0.0753
     135    C4      20.554467   18.852649   21.955388 C.3        1 MOL1        -0.1855
     136    H6      20.760839   17.786361   22.114395 H          1 MOL1         0.0755
     137    H7      21.461683   19.282698   21.512081 H          1 MOL1         0.0755
     138    C5      20.288534   19.537215   23.316999 C.3        1 MOL1        -0.1855
     139    H8      20.010019   20.585676   23.155650 H          1 MOL1         0.0755
     140    H9      21.219560   19.552314   23.898696 H          1 MOL1         0.0755
     141    C6      19.196706   18.830163   24.162085 C.3        1 MOL1        -0.1958
     142    H10     18.242001   18.799794   23.626158 H          1 MOL1         0.0753
     143    H11     19.490763   17.793291   24.360293 H          1 MOL1         0.0753
     144    C7      18.953597   19.511752   25.504119 C.2        1 MOL1         0.6174
     145    O1      19.573853   19.117784   26.471806 O.co2      1 MOL1        -0.6695
     146    O2      18.160114   20.434350   25.535992 O.co2      1 MOL1        -0.6695
@<TRIPOS>BOND
    1     1     2    1
    2     1     3    1
    3     1     4    1
    4     4     5    1
    5     4     6    1
    6     6     7    1
    7     4     8    1
    8     8     9    1
    9     8    10    1
   10    10    11    1
   11     8    12    1
   12    12    13    1
   13    12    14    1
   14    14    15    1
   15     1    16    1
   16    14    16    1
   17    14    17    1
   18    17    18    1
   19    17    19    1
   20    17    20    1
   21    20    21    1
   22    22    23    1
   23    22    24    1
   24    22    25    1
   25    25    26    1
   26    25    27    1
   27    27    28    1
   28    25    29    1
   29    29    30    1
   30    29    31    1
   31    31    32    1
   32     3    33    1
   33    29    33    1
   34    33    34    1
   35    33    35    1
   36    35    36    1
   37    22    37    1
   38    35    37    1
   39    35    38    1
   40    38    39    1
   41    38    40    1
   42    38    41    1
   43    41    42    1
   44    43    44    1
   45    43    45    1
   46    43    46    1
   47    46    47    1
   48    46    48    1
   49    48    49    1
   50    46    50    1
   51    50    51    1
   52    50    52    1
   53    52    53    1
   54    24    54    1
   55    50    54    1
   56    54    55    1
   57    54    56    1
   58    56    57    1
   59    43    58    1
   60    56    58    1
   61    56    59    1
   62    59    60    1
   63    59    61    1
   64    59    62    1
   65    62    63    1
   66    64    65    1
   67    64    66    1
   68    64    67    1
   69    67    68    1
   70    67    69    1
   71    69    70    1
   72    67    71    1
   73    71    72    1
   74    71    73    1
   75    73    74    1
   76    45    75    1
   77    71    75    1
   78    75    76    1
   79    75    77    1
   80    77    78    1
   81    64    79    1
   82    77    79    1
   83    77    80    1
   84    80    81    1
   85    80    82    1
   86    80    83    1
   87    83    84    1
   88    85    86    1
   89    85    87    1
   90    85    88    1
   91    88    89    1
   92    88    90    1
   93    90    91    1
   94    88    92    1
   95    92    93    1
   96    92    94    1
   97    94    95    1
   98    66    96    1
   99    92    96    1
  100    96    97    1
  101    96    98    1
  102    98    99    1
  103    85   100    1
  104    98   100    1
  105    98   101    1
  106   101   102    1
  107   101   103    1
  108   101   104    1
  109   104   105    1
  110   106   107    1
  111    12   108    1
  112   106   108    1
  113   106   109    1
  114   109   110    1
  115   109   111    1
  116   111   112    1
  117   109   113    1
  118   113   114    1
  119   113   115    1
  120   115   116    1
  121    87   117    1
  122   113   117    1
  123   117   118    1
  124   117   119    1
  125   119   120    1
  126   106   121    1
  127   119   121    1
  128   119   122    1
  129   122   123    1
  130   122   124    1
  131   122   125    1
  132   125   126    1
  133   127   128    1
  134   127   129    1
  135   127   130    2
  136   130   131    1
  137   130   132    1
  138   132   133    1
  139   132   134    1
  140   132   135    1
  141   135   136    1
  142   135   137    1
  143   135   138    1
  144   138   139    1
  145   138   140    1
  146   138   141    1
  147   141   142    1
  148   141   143    1
  149   141   144    1
  150   144   145    1
  151   144   146    2
@<TRIPOS>SUBSTRUCTURE
       1 MOL1            1 RESIDUE      1      MOL     
       2 MOL1          146 RESIDUE      1      MOL     
@<SCITEGIC>MOL_PROPERTY
VM2 Rank
SciTegic.value.IntegerValue
1

@<SCITEGIC>MOL_PROPERTY
Conf_Id
SciTegic.value.IntegerValue
24451

@<SCITEGIC>MOL_PROPERTY
Probability
SciTegic.value.DoubleValue
6.16

@<SCITEGIC>MOL_PROPERTY
Sum Probability
SciTegic.value.DoubleValue
6.16

@<SCITEGIC>MOL_PROPERTY
Delta G
SciTegic.value.DoubleValue
0.000

@<SCITEGIC>MOL_PROPERTY
G
SciTegic.value.DoubleValue
492.061

@<SCITEGIC>MOL_PROPERTY
E
SciTegic.value.DoubleValue
304.437

@<SCITEGIC>MOL_PROPERTY
-TS
SciTegic.value.DoubleValue
187.624

@<SCITEGIC>MOL_PROPERTY
U+W
SciTegic.value.DoubleValue
175.666

@<SCITEGIC>MOL_PROPERTY
U
SciTegic.value.DoubleValue
247.505

@<SCITEGIC>MOL_PROPERTY
W
SciTegic.value.DoubleValue
-71.839

@<SCITEGIC>MOL_PROPERTY
W(PB)
SciTegic.value.DoubleValue
-77.999

@<SCITEGIC>MOL_PROPERTY
W(SA)
SciTegic.value.DoubleValue
6.160

@<SCITEGIC>MOL_PROPERTY
Valence
SciTegic.value.DoubleValue
151.153

@<SCITEGIC>MOL_PROPERTY
Coulomb
SciTegic.value.DoubleValue
121.553

@<SCITEGIC>MOL_PROPERTY
VdW
SciTegic.value.DoubleValue
-25.201

@<SCITEGIC>MOL_PROPERTY
VdW6
SciTegic.value.DoubleValue
-180.831

@<SCITEGIC>MOL_PROPERTY
VdW12
SciTegic.value.DoubleValue
155.630

@<SCITEGIC>MOL_PROPERTY
Bond
SciTegic.value.DoubleValue
4.540

@<SCITEGIC>MOL_PROPERTY
Angle
SciTegic.value.DoubleValue
11.645

@<SCITEGIC>MOL_PROPERTY
Pdih
SciTegic.value.DoubleValue
134.966

@<SCITEGIC>MOL_PROPERTY
Idih
SciTegic.value.DoubleValue
0.001

@<SCITEGIC>MOL_PROPERTY
Tether
SciTegic.value.DoubleValue
0.000

@<TRIPOS>MOLECULE
CD_guest-s22_vm2_rndm.mol2 : vm2 host+ligand conformer 2
         146         151           2
SMALL
USER_CHARGES
 
@<TRIPOS>ATOM
       1    C1      16.241528   15.322067   21.824034 C.3        1 MOL1         0.2972
       2    H1      15.178914   15.200502   22.070208 H          1 MOL1         0.0751
       3    O1      16.498629   16.582755   21.175539 O.3        1 MOL1        -0.3740
       4    C2      17.107229   15.230049   23.106208 C.3        1 MOL1         0.1003
       5    H2      16.948332   14.230467   23.531223 H          1 MOL1         0.0783
       6    O2      16.726635   16.217992   24.077263 O.3        1 MOL1        -0.5519
       7    H3      15.868776   16.605460   23.779063 H          1 MOL1         0.3769
       8    C3      18.608027   15.374030   22.766214 C.3        1 MOL1         0.1053
       9    H4      18.780706   16.405498   22.430872 H          1 MOL1         0.0783
      10    O3      19.376256   15.108101   23.944312 O.3        1 MOL1        -0.5519
      11    H5      18.937221   15.636130   24.648108 H          1 MOL1         0.3769
      12    C4      19.038136   14.417214   21.625907 C.3        1 MOL1         0.1018
      13    H6      19.148639   13.406265   22.039648 H          1 MOL1         0.0783
      14    C5      18.031720   14.394870   20.439481 C.3        1 MOL1         0.1043
      15    H7      18.135131   15.335272   19.882911 H          1 MOL1         0.0783
      16    O4      16.674613   14.271365   20.934598 O.3        1 MOL1        -0.3740
      17    C6      18.275889   13.240280   19.442412 C.3        1 MOL1         0.0138
      18    H8      19.250063   13.386038   18.957311 H          1 MOL1         0.0794
      19    H9      17.511035   13.286326   18.655645 H          1 MOL1         0.0794
      20    O5      18.235996   11.970097   20.099158 O.3        1 MOL1        -0.5486
      21    H10     17.355848   11.911821   20.533267 H          1 MOL1         0.3769
      22    C7      14.706513   20.216709   20.461365 C.3        1 MOL1         0.2972
      23    H11     14.090693   21.074000   20.160211 H          1 MOL1         0.0751
      24    O6      16.032219   20.625566   20.857847 O.3        1 MOL1        -0.3740
      25    C8      14.039783   19.416448   21.609788 C.3        1 MOL1         0.1003
      26    H12     13.109881   18.993568   21.207657 H          1 MOL1         0.0783
      27    O7      13.714423   20.245928   22.734267 O.3        1 MOL1        -0.5519
      28    H13     14.568361   20.602416   23.087770 H          1 MOL1         0.3769
      29    C9      14.949470   18.238997   22.035547 C.3        1 MOL1         0.1053
      30    H14     15.867464   18.655498   22.473865 H          1 MOL1         0.0783
      31    O8      14.260818   17.449820   23.011947 O.3        1 MOL1        -0.5519
      32    H15     13.807947   18.103113   23.592523 H          1 MOL1         0.3769
      33    C10     15.348625   17.367530   20.810887 C.3        1 MOL1         0.1018
      34    H16     14.503325   16.727726   20.524296 H          1 MOL1         0.0783
      35    C11     15.777283   18.204313   19.572669 C.3        1 MOL1         0.1043
      36    H17     16.789145   18.596828   19.737905 H          1 MOL1         0.0783
      37    O9      14.845017   19.295179   19.360125 O.3        1 MOL1        -0.3740
      38    C12     15.797083   17.349892   18.288071 C.3        1 MOL1         0.0138
      39    H18     14.782837   16.982430   18.082545 H          1 MOL1         0.0794
      40    H19     16.444400   16.476713   18.444516 H          1 MOL1         0.0794
      41    O10     16.279718   18.125051   17.189451 O.3        1 MOL1        -0.5486
      42    H20     15.786598   18.975006   17.221126 H          1 MOL1         0.3769
      43    C13     18.362261   23.819177   21.997703 C.3        1 MOL1         0.2972
      44    H21     18.780197   24.779586   22.324533 H          1 MOL1         0.0751
      45    O11     19.387528   22.936539   21.492939 O.3        1 MOL1        -0.3740
      46    C14     17.645585   23.119323   23.179107 C.3        1 MOL1         0.1003
      47    H22     16.822891   23.772042   23.498342 H          1 MOL1         0.0783
      48    O12     18.564375   22.955246   24.273112 O.3        1 MOL1        -0.5519
      49    H23     18.280469   22.165394   24.802159 H          1 MOL1         0.3769
      50    C15     17.027420   21.771162   22.722059 C.3        1 MOL1         0.1053
      51    H24     17.844371   21.073929   22.498886 H          1 MOL1         0.0783
      52    O13     16.196016   21.237058   23.759995 O.3        1 MOL1        -0.5519
      53    H25     16.800199   20.931051   24.485756 H          1 MOL1         0.3769
      54    C16     16.174578   21.937531   21.434868 C.3        1 MOL1         0.1018
      55    H26     15.204255   22.371830   21.709949 H          1 MOL1         0.0783
      56    C17     16.859208   22.820040   20.354520 C.3        1 MOL1         0.1043
      57    H27     17.677436   22.240052   19.908123 H          1 MOL1         0.0783
      58    O14     17.388052   24.026553   20.954674 O.3        1 MOL1        -0.3740
      59    C18     15.909838   23.238539   19.209857 C.3        1 MOL1         0.0138
      60    H28     15.586920   22.340539   18.666660 H          1 MOL1         0.0794
      61    H29     16.467454   23.865640   18.501263 H          1 MOL1         0.0794
      62    O15     14.772907   23.946948   19.712055 O.3        1 MOL1        -0.5486
      63    H30     15.127435   24.715168   20.212829 H          1 MOL1         0.3769
      64    C19     23.540688   22.762159   21.197287 C.3        1 MOL1         0.2972
      65    H31     24.599208   22.972189   20.997810 H          1 MOL1         0.0751
      66    O16     23.327754   21.387225   21.568914 O.3        1 MOL1        -0.3740
      67    C20     23.012367   23.658111   22.346131 C.3        1 MOL1         0.1003
      68    H32     23.134265   24.703121   22.032896 H          1 MOL1         0.0783
      69    O17     23.747131   23.436927   23.558445 O.3        1 MOL1        -0.5519
      70    H33     23.245283   23.932066   24.244542 H          1 MOL1         0.3769
      71    C21     21.506300   23.405414   22.596147 C.3        1 MOL1         0.1053
      72    H34     21.398630   22.382603   22.979891 H          1 MOL1         0.0783
      73    O18     21.029730   24.337863   23.573667 O.3        1 MOL1        -0.5519
      74    H35     20.189531   23.951283   23.926609 H          1 MOL1         0.3769
      75    C22     20.689185   23.516090   21.278178 C.3        1 MOL1         0.1018
      76    H36     20.611977   24.568650   20.975139 H          1 MOL1         0.0783
      77    C23     21.341185   22.706538   20.125063 C.3        1 MOL1         0.1043
      78    H37     21.222849   21.636032   20.340902 H          1 MOL1         0.0783
      79    O19     22.747994   23.037651   20.023862 O.3        1 MOL1        -0.3740
      80    C24     20.698769   22.988252   18.748491 C.3        1 MOL1         0.0138
      81    H38     19.634680   22.722355   18.786614 H          1 MOL1         0.0794
      82    H39     21.172763   22.339870   17.999698 H          1 MOL1         0.0794
      83    O20     20.851797   24.362159   18.380096 O.3        1 MOL1        -0.5486
      84    H40     21.812776   24.556325   18.452640 H          1 MOL1         0.3769
      85    C25     25.128382   17.681527   21.697983 C.3        1 MOL1         0.2972
      86    H41     25.813877   16.825211   21.724249 H          1 MOL1         0.0751
      87    O21     23.753246   17.264232   21.581835 O.3        1 MOL1        -0.3740
      88    C26     25.284796   18.520894   22.989687 C.3        1 MOL1         0.1003
      89    H42     26.319639   18.885874   23.020967 H          1 MOL1         0.0783
      90    O22     25.027846   17.730922   24.158959 O.3        1 MOL1        -0.5519
      91    H43     24.967721   18.385206   24.891018 H          1 MOL1         0.3769
      92    C27     24.348010   19.749419   22.963882 C.3        1 MOL1         0.1053
      93    H44     23.313959   19.388452   23.030548 H          1 MOL1         0.0783
      94    O23     24.641410   20.601242   24.078072 O.3        1 MOL1        -0.5519
      95    H45     24.184010   21.460655   23.904303 H          1 MOL1         0.3769
      96    C28     24.497474   20.553933   21.649503 C.3        1 MOL1         0.1018
      97    H46     25.421452   21.144359   21.708441 H          1 MOL1         0.0783
      98    C29     24.523080   19.653774   20.381898 C.3        1 MOL1         0.1043
      99    H47     23.507313   19.275143   20.205274 H          1 MOL1         0.0783
     100    O24     25.432531   18.542340   20.580461 O.3        1 MOL1        -0.3740
     101    C30     24.973523   20.400028   19.106498 C.3        1 MOL1         0.0138
     102    H48     24.245982   21.188139   18.873668 H          1 MOL1         0.0794
     103    H49     24.968895   19.693997   18.265332 H          1 MOL1         0.0794
     104    O25     26.277772   20.964156   19.272812 O.3        1 MOL1        -0.5486
     105    H50     26.869749   20.217251   19.514152 H          1 MOL1         0.3769
     106    C31     21.330919   13.976099   20.860680 C.3        1 MOL1         0.2972
     107    H51     20.917629   13.000092   20.575873 H          1 MOL1         0.0751
     108    O26     20.284166   14.932240   21.119558 O.3        1 MOL1        -0.3740
     109    C32     22.249851   13.847266   22.107932 C.3        1 MOL1         0.1003
     110    H52     23.068014   13.168402   21.835725 H          1 MOL1         0.0783
     111    O27     21.534313   13.283298   23.218262 O.3        1 MOL1        -0.5519
     112    H53     20.868821   13.958606   23.501935 H          1 MOL1         0.3769
     113    C33     22.878302   15.218689   22.474565 C.3        1 MOL1         0.1053
     114    H54     22.074849   15.877061   22.832880 H          1 MOL1         0.0783
     115    O28     23.872551   15.062824   23.495259 O.3        1 MOL1        -0.5519
     116    H55     24.179860   15.972537   23.732403 H          1 MOL1         0.3769
     117    C34     23.537373   15.883066   21.238463 C.3        1 MOL1         0.1018
     118    H56     24.477327   15.362804   21.011557 H          1 MOL1         0.0783
     119    C35     22.632572   15.849032   19.979432 C.3        1 MOL1         0.1043
     120    H57     21.800132   16.548152   20.129648 H          1 MOL1         0.0783
     121    O29     22.129009   14.504019   19.781559 O.3        1 MOL1        -0.3740
     122    C36     23.370806   16.264614   18.687979 C.3        1 MOL1         0.0138
     123    H58     23.748187   17.288535   18.802353 H          1 MOL1         0.0794
     124    H59     22.650789   16.271447   17.858852 H          1 MOL1         0.0794
     125    O30     24.449792   15.369627   18.401463 O.3        1 MOL1        -0.5486
     126    H60     24.058360   14.467866   18.393182 H          1 MOL1         0.3769
     127    C1      20.347604   18.888482   18.643252 C.2        1 MOL1        -0.2535
     128    H1      20.650138   19.932530   18.664804 H          1 MOL1         0.0845
     129    H2      20.556943   18.322981   17.737396 H          1 MOL1         0.0845
     130    C2      19.741878   18.317943   19.687490 C.2        1 MOL1        -0.1324
     131    H3      19.446338   17.270962   19.647320 H          1 MOL1         0.0833
     132    C3      19.412209   19.036958   20.975460 C.3        1 MOL1        -0.1813
     133    H4      18.475512   18.640179   21.384223 H          1 MOL1         0.0753
     134    H5      19.240646   20.102980   20.777549 H          1 MOL1         0.0753
     135    C4      20.553682   18.881279   22.003247 C.3        1 MOL1        -0.1855
     136    H6      20.757495   17.816761   22.178142 H          1 MOL1         0.0755
     137    H7      21.468414   19.303573   21.569669 H          1 MOL1         0.0755
     138    C5      20.267294   19.584757   23.350672 C.3        1 MOL1        -0.1855
     139    H8      19.986234   20.629348   23.171589 H          1 MOL1         0.0755
     140    H9      21.190991   19.611294   23.943656 H          1 MOL1         0.0755
     141    C6      19.168387   18.883898   24.190376 C.3        1 MOL1        -0.1958
     142    H10     18.215636   18.859837   23.650852 H          1 MOL1         0.0753
     143    H11     19.455890   17.845714   24.385589 H          1 MOL1         0.0753
     144    C7      18.927361   19.559993   25.535513 C.2        1 MOL1         0.6174
     145    O1      18.155646   20.500877   25.567994 O.co2      1 MOL1        -0.6695
     146    O2      19.532590   19.146100   26.504548 O.co2      1 MOL1        -0.6695
@<TRIPOS>BOND
    1     1     2    1
    2     1     3    1
    3     1     4    1
    4     4     5    1
    5     4     6    1
    6     6     7    1
    7     4     8    1
    8     8     9    1
    9     8    10    1
   10    10    11    1
   11     8    12    1
   12    12    13    1
   13    12    14    1
   14    14    15    1
   15     1    16    1
   16    14    16    1
   17    14    17    1
   18    17    18    1
   19    17    19    1
   20    17    20    1
   21    20    21    1
   22    22    23    1
   23    22    24    1
   24    22    25    1
   25    25    26    1
   26    25    27    1
   27    27    28    1
   28    25    29    1
   29    29    30    1
   30    29    31    1
   31    31    32    1
   32     3    33    1
   33    29    33    1
   34    33    34    1
   35    33    35    1
   36    35    36    1
   37    22    37    1
   38    35    37    1
   39    35    38    1
   40    38    39    1
   41    38    40    1
   42    38    41    1
   43    41    42    1
   44    43    44    1
   45    43    45    1
   46    43    46    1
   47    46    47    1
   48    46    48    1
   49    48    49    1
   50    46    50    1
   51    50    51    1
   52    50    52    1
   53    52    53    1
   54    24    54    1
   55    50    54    1
   56    54    55    1
   57    54    56    1
   58    56    57    1
   59    43    58    1
   60    56    58    1
   61    56    59    1
   62    59    60    1
   63    59    61    1
   64    59    62    1
   65    62    63    1
   66    64    65    1
   67    64    66    1
   68    64    67    1
   69    67    68    1
   70    67    69    1
   71    69    70    1
   72    67    71    1
   73    71    72    1
   74    71    73    1
   75    73    74    1
   76    45    75    1
   77    71    75    1
   78    75    76    1
   79    75    77    1
   80    77    78    1
   81    64    79    1
   82    77    79    1
   83    77    80    1
   84    80    81    1
   85    80    82    1
   86    80    83    1
   87    83    84    1
   88    85    86    1
   89    85    87    1
   90    85    88    1
   91    88    89    1
   92    88    90    1
   93    90    91    1
   94    88    92    1
   95    92    93    1
   96    92    94    1
   97    94    95    1
   98    66    96    1
   99    92    96    1
  100    96    97    1
  101    96    98    1
  102    98    99    1
  103    85   100    1
  104    98   100    1
  105    98   101    1
  106   101   102    1
  107   101   103    1
  108   101   104    1
  109   104   105    1
  110   106   107    1
  111    12   108    1
  112   106   108    1
  113   106   109    1
  114   109   110    1
  115   109   111    1
  116   111   112    1
  117   109   113    1
  118   113   114    1
  119   113   115    1
  120   115   116    1
  121    87   117    1
  122   113   117    1
  123   117   118    1
  124   117   119    1
  125   119   120    1
  126   106   121    1
  127   119   121    1
  128   119   122    1
  129   122   123    1
  130   122   124    1
  131   122   125    1
  132   125   126    1
  133   127   128    1
  134   127   129    1
  135   127   130    2
  136   130   131    1
  137   130   132    1
  138   132   133    1
  139   132   134    1
  140   132   135    1
  141   135   136    1
  142   135   137    1
  143   135   138    1
  144   138   139    1
  145   138   140    1
  146   138   141    1
  147   141   142    1
  148   141   143    1
  149   141   144    1
  150   144   145    1
  151   144   146    2
@<TRIPOS>SUBSTRUCTURE
       1 MOL1            1 RESIDUE      1      MOL     
       2 MOL1          146 RESIDUE      1      MOL     
@<SCITEGIC>MOL_PROPERTY
VM2 Rank
SciTegic.value.IntegerValue
2

@<SCITEGIC>MOL_PROPERTY
Conf_Id
SciTegic.value.IntegerValue
27060

@<SCITEGIC>MOL_PROPERTY
Probability
SciTegic.value.DoubleValue
3.56

@<SCITEGIC>MOL_PROPERTY
Sum Probability
SciTegic.value.DoubleValue
9.71

@<SCITEGIC>MOL_PROPERTY
Delta G
SciTegic.value.DoubleValue
0.327

@<SCITEGIC>MOL_PROPERTY
G
SciTegic.value.DoubleValue
492.388

@<SCITEGIC>MOL_PROPERTY
E
SciTegic.value.DoubleValue
304.978

@<SCITEGIC>MOL_PROPERTY
-TS
SciTegic.value.DoubleValue
187.410

@<SCITEGIC>MOL_PROPERTY
U+W
SciTegic.value.DoubleValue
176.207

@<SCITEGIC>MOL_PROPERTY
U
SciTegic.value.DoubleValue
248.985

@<SCITEGIC>MOL_PROPERTY
W
SciTegic.value.DoubleValue
-72.778

@<SCITEGIC>MOL_PROPERTY
W(PB)
SciTegic.value.DoubleValue
-78.869

@<SCITEGIC>MOL_PROPERTY
W(SA)
SciTegic.value.DoubleValue
6.091

@<SCITEGIC>MOL_PROPERTY
Valence
SciTegic.value.DoubleValue
152.161

@<SCITEGIC>MOL_PROPERTY
Coulomb
SciTegic.value.DoubleValue
122.519

@<SCITEGIC>MOL_PROPERTY
VdW
SciTegic.value.DoubleValue
-25.695

@<SCITEGIC>MOL_PROPERTY
VdW6
SciTegic.value.DoubleValue
-181.907

@<SCITEGIC>MOL_PROPERTY
VdW12
SciTegic.value.DoubleValue
156.213

@<SCITEGIC>MOL_PROPERTY
Bond
SciTegic.value.DoubleValue
4.572

@<SCITEGIC>MOL_PROPERTY
Angle
SciTegic.value.DoubleValue
11.669

@<SCITEGIC>MOL_PROPERTY
Pdih
SciTegic.value.DoubleValue
135.919

@<SCITEGIC>MOL_PROPERTY
Idih
SciTegic.value.DoubleValue
0.001

@<SCITEGIC>MOL_PROPERTY
Tether
SciTegic.value.DoubleValue
0.000

@<TRIPOS>MOLECULE
CD_guest-s22_vm2_rndm.mol2 : vm2 host+ligand conformer 3
         146         151           2
SMALL
USER_CHARGES
 
@<TRIPOS>ATOM
       1    C1      16.249050   15.295001   21.681430 C.3        1 MOL1         0.2972
       2    H1      15.174039   15.147073   21.844604 H          1 MOL1         0.0751
       3    O1      16.531610   16.596129   21.128217 O.3        1 MOL1        -0.3740
       4    C2      17.022879   15.130991   23.013015 C.3        1 MOL1         0.1003
       5    H2      16.860298   14.101642   23.358232 H          1 MOL1         0.0783
       6    O2      16.553033   16.037736   24.019253 O.3        1 MOL1        -0.5519
       7    H3      17.239014   15.997691   24.723187 H          1 MOL1         0.3769
       8    C3      18.541063   15.318871   22.794991 C.3        1 MOL1         0.1053
       9    H4      18.726662   16.367541   22.526370 H          1 MOL1         0.0783
      10    O3      19.229197   14.989858   24.007175 O.3        1 MOL1        -0.5519
      11    H5      20.125877   14.671809   23.744322 H          1 MOL1         0.3769
      12    C4      19.064129   14.426110   21.642218 C.3        1 MOL1         0.1018
      13    H6      19.146538   13.394610   22.010807 H          1 MOL1         0.0783
      14    C5      18.150592   14.469605   20.382522 C.3        1 MOL1         0.1043
      15    H7      18.282325   15.444005   19.894873 H          1 MOL1         0.0783
      16    O4      16.762089   14.303707   20.765966 O.3        1 MOL1        -0.3740
      17    C6      18.481110   13.381088   19.337224 C.3        1 MOL1         0.0138
      18    H8      19.484354   13.566310   18.931480 H          1 MOL1         0.0794
      19    H9      17.772220   13.467352   18.502786 H          1 MOL1         0.0794
      20    O5      18.414093   12.072817   19.912038 O.3        1 MOL1        -0.5486
      21    H10     17.504671   11.977091   20.272977 H          1 MOL1         0.3769
      22    C7      14.776566   20.238196   20.370576 C.3        1 MOL1         0.2972
      23    H11     14.174897   21.100105   20.054641 H          1 MOL1         0.0751
      24    O6      16.090894   20.641044   20.810195 O.3        1 MOL1        -0.3740
      25    C8      14.069769   19.442455   21.498982 C.3        1 MOL1         0.1003
      26    H12     13.144853   19.030824   21.075238 H          1 MOL1         0.0783
      27    O7      13.727807   20.300952   22.597832 O.3        1 MOL1        -0.5519
      28    H13     14.577337   20.560301   23.033582 H          1 MOL1         0.3769
      29    C9      14.957273   18.249701   21.946259 C.3        1 MOL1         0.1053
      30    H14     15.861310   18.657768   22.419467 H          1 MOL1         0.0783
      31    O8      14.252643   17.429068   22.885407 O.3        1 MOL1        -0.5519
      32    H15     14.947532   16.937074   23.387881 H          1 MOL1         0.3769
      33    C10     15.395518   17.386087   20.727814 C.3        1 MOL1         0.1018
      34    H16     14.558467   16.750248   20.410291 H          1 MOL1         0.0783
      35    C11     15.866288   18.229983   19.509957 C.3        1 MOL1         0.1043
      36    H17     16.865607   18.627264   19.725231 H          1 MOL1         0.0783
      37    O9      14.949635   19.326359   19.267061 O.3        1 MOL1        -0.3740
      38    C12     15.971636   17.402654   18.210165 C.3        1 MOL1         0.0138
      39    H18     16.673736   16.573551   18.369781 H          1 MOL1         0.0794
      40    H19     16.390285   18.040614   17.420373 H          1 MOL1         0.0794
      41    O10     14.691879   16.898525   17.815827 O.3        1 MOL1        -0.5486
      42    H20     14.094262   17.678243   17.776271 H          1 MOL1         0.3769
      43    C13     18.416133   23.805936   22.002638 C.3        1 MOL1         0.2972
      44    H21     18.842410   24.758410   22.341564 H          1 MOL1         0.0751
      45    O11     19.434906   22.916746   21.494951 O.3        1 MOL1        -0.3740
      46    C14     17.685037   23.103040   23.173091 C.3        1 MOL1         0.1003
      47    H22     16.866714   23.760801   23.493196 H          1 MOL1         0.0783
      48    O12     18.596445   22.920247   24.270459 O.3        1 MOL1        -0.5519
      49    H23     18.301139   22.128903   24.791000 H          1 MOL1         0.3769
      50    C15     17.057259   21.764989   22.700164 C.3        1 MOL1         0.1053
      51    H24     17.870110   21.061598   22.483411 H          1 MOL1         0.0783
      52    O13     16.210967   21.230228   23.725991 O.3        1 MOL1        -0.5519
      53    H25     16.805699   20.908540   24.452747 H          1 MOL1         0.3769
      54    C16     16.220853   21.946647   21.403330 C.3        1 MOL1         0.1018
      55    H26     15.245812   22.374942   21.670854 H          1 MOL1         0.0783
      56    C17     16.915855   22.840842   20.338950 C.3        1 MOL1         0.1043
      57    H27     17.732384   22.261711   19.888694 H          1 MOL1         0.0783
      58    O14     17.450151   24.035200   20.957207 O.3        1 MOL1        -0.3740
      59    C18     15.976541   23.281742   19.194381 C.3        1 MOL1         0.0138
      60    H28     15.652230   22.394086   18.635290 H          1 MOL1         0.0794
      61    H29     16.542684   23.916044   18.499071 H          1 MOL1         0.0794
      62    O15     14.840568   23.989634   19.699269 O.3        1 MOL1        -0.5486
      63    H30     15.196243   24.747100   20.215359 H          1 MOL1         0.3769
      64    C19     23.592184   22.746846   21.193076 C.3        1 MOL1         0.2972
      65    H31     24.648878   22.962845   20.990088 H          1 MOL1         0.0751
      66    O16     23.388744   21.370403   21.563610 O.3        1 MOL1        -0.3740
      67    C20     23.059326   23.641772   22.341107 C.3        1 MOL1         0.1003
      68    H32     23.170759   24.686728   22.023771 H          1 MOL1         0.0783
      69    O17     23.797909   23.433661   23.552938 O.3        1 MOL1        -0.5519
      70    H33     23.293069   23.929230   24.236732 H          1 MOL1         0.3769
      71    C21     21.556232   23.376431   22.594549 C.3        1 MOL1         0.1053
      72    H34     21.455324   22.350235   22.971739 H          1 MOL1         0.0783
      73    O18     21.075380   24.299565   23.579015 O.3        1 MOL1        -0.5519
      74    H35     20.235609   23.908126   23.927675 H          1 MOL1         0.3769
      75    C22     20.738500   23.490461   21.277629 C.3        1 MOL1         0.1018
      76    H36     20.664533   24.543552   20.975547 H          1 MOL1         0.0783
      77    C23     21.389692   22.680594   20.123554 C.3        1 MOL1         0.1043
      78    H37     21.272499   21.609236   20.337630 H          1 MOL1         0.0783
      79    O19     22.796196   23.014848   20.020149 O.3        1 MOL1        -0.3740
      80    C24     20.746558   22.963440   18.747702 C.3        1 MOL1         0.0138
      81    H38     19.681702   22.701736   18.787334 H          1 MOL1         0.0794
      82    H39     21.217415   22.312149   17.999319 H          1 MOL1         0.0794
      83    O20     20.903448   24.336525   18.377849 O.3        1 MOL1        -0.5486
      84    H40     21.865036   24.527746   18.450111 H          1 MOL1         0.3769
      85    C25     25.213312   17.692015   21.793186 C.3        1 MOL1         0.2972
      86    H41     25.891244   16.831246   21.851623 H          1 MOL1         0.0751
      87    O21     23.840961   17.285603   21.625482 O.3        1 MOL1        -0.3740
      88    C26     25.325618   18.542999   23.081157 C.3        1 MOL1         0.1003
      89    H42     26.356561   18.915518   23.140625 H          1 MOL1         0.0783
      90    O22     25.038253   17.762938   24.249670 O.3        1 MOL1        -0.5519
      91    H43     24.949071   18.424938   24.971970 H          1 MOL1         0.3769
      92    C27     24.381662   19.763906   23.013830 C.3        1 MOL1         0.1053
      93    H44     23.347940   19.396735   23.047244 H          1 MOL1         0.0783
      94    O23     24.632541   20.623205   24.132371 O.3        1 MOL1        -0.5519
      95    H45     24.189834   21.484588   23.932356 H          1 MOL1         0.3769
      96    C28     24.569517   20.559767   21.698818 C.3        1 MOL1         0.1018
      97    H46     25.479686   21.167574   21.788731 H          1 MOL1         0.0783
      98    C29     24.658344   19.652492   20.438163 C.3        1 MOL1         0.1043
      99    H47     23.652357   19.270370   20.217244 H          1 MOL1         0.0783
     100    O24     25.561102   18.542467   20.680361 O.3        1 MOL1        -0.3740
     101    C30     25.159837   20.397342   19.181195 C.3        1 MOL1         0.0138
     102    H48     24.440488   21.183691   18.917809 H          1 MOL1         0.0794
     103    H49     25.191046   19.690271   18.341445 H          1 MOL1         0.0794
     104    O25     26.454671   20.964993   19.400733 O.3        1 MOL1        -0.5486
     105    H50     27.038283   20.220657   19.668857 H          1 MOL1         0.3769
     106    C31     21.388116   14.005432   20.994734 C.3        1 MOL1         0.2972
     107    H51     20.971762   13.024735   20.731031 H          1 MOL1         0.0751
     108    O26     20.347285   14.964224   21.268919 O.3        1 MOL1        -0.3740
     109    C32     22.324919   13.895749   22.227242 C.3        1 MOL1         0.1003
     110    H52     23.134350   13.204333   21.959053 H          1 MOL1         0.0783
     111    O27     21.638701   13.388509   23.378722 O.3        1 MOL1        -0.5519
     112    H53     22.294659   13.453962   24.109028 H          1 MOL1         0.3769
     113    C33     22.962209   15.264591   22.561324 C.3        1 MOL1         0.1053
     114    H54     22.166455   15.936321   22.912362 H          1 MOL1         0.0783
     115    O28     23.945629   15.095395   23.589498 O.3        1 MOL1        -0.5519
     116    H55     24.263154   16.001999   23.828668 H          1 MOL1         0.3769
     117    C34     23.614965   15.901584   21.309080 C.3        1 MOL1         0.1018
     118    H56     24.547887   15.372266   21.073619 H          1 MOL1         0.0783
     119    C35     22.690158   15.860781   20.065269 C.3        1 MOL1         0.1043
     120    H57     21.870269   16.576048   20.207948 H          1 MOL1         0.0783
     121    O29     22.175404   14.515869   19.898089 O.3        1 MOL1        -0.3740
     122    C36     23.444122   16.231844   18.771159 C.3        1 MOL1         0.0138
     123    H58     24.244506   15.500595   18.596480 H          1 MOL1         0.0794
     124    H59     23.912160   17.217079   18.892086 H          1 MOL1         0.0794
     125    O30     22.539039   16.255561   17.666270 O.3        1 MOL1        -0.5486
     126    H60     22.021725   15.422052   17.722927 H          1 MOL1         0.3769
     127    C1      19.905275   19.007321   18.520794 C.2        1 MOL1        -0.2535
     128    H1      19.861210   20.093103   18.479338 H          1 MOL1         0.0845
     129    H2      20.132704   18.477487   17.597501 H          1 MOL1         0.0845
     130    C2      19.693415   18.344301   19.659902 C.2        1 MOL1        -0.1324
     131    H3      19.740183   17.257167   19.679046 H          1 MOL1         0.0833
     132    C3      19.380109   19.006228   20.981979 C.3        1 MOL1        -0.1813
     133    H4      18.476284   18.554027   21.405502 H          1 MOL1         0.0753
     134    H5      19.161102   20.070749   20.828718 H          1 MOL1         0.0753
     135    C4      20.553841   18.859689   21.974802 C.3        1 MOL1        -0.1855
     136    H6      20.777345   17.796793   22.134134 H          1 MOL1         0.0755
     137    H7      21.451277   19.301781   21.523245 H          1 MOL1         0.0755
     138    C5      20.287817   19.544263   23.336603 C.3        1 MOL1        -0.1855
     139    H8      20.008567   20.592316   23.173964 H          1 MOL1         0.0755
     140    H9      21.218806   19.561051   23.918208 H          1 MOL1         0.0755
     141    C6      19.195713   18.838776   24.182858 C.3        1 MOL1        -0.1958
     142    H10     18.242273   18.803254   23.645121 H          1 MOL1         0.0753
     143    H11     19.491578   17.803606   24.387558 H          1 MOL1         0.0753
     144    C7      18.946116   19.528844   25.519345 C.2        1 MOL1         0.6174
     145    O1      19.556912   19.136961   26.493877 O.co2      1 MOL1        -0.6695
     146    O2      18.157190   20.455784   25.540009 O.co2      1 MOL1        -0.6695
@<TRIPOS>BOND
    1     1     2    1
    2     1     3    1
    3     1     4    1
    4     4     5    1
    5     4     6    1
    6     6     7    1
    7     4     8    1
    8     8     9    1
    9     8    10    1
   10    10    11    1
   11     8    12    1
   12    12    13    1
   13    12    14    1
   14    14    15    1
   15     1    16    1
   16    14    16    1
   17    14    17    1
   18    17    18    1
   19    17    19    1
   20    17    20    1
   21    20    21    1
   22    22    23    1
   23    22    24    1
   24    22    25    1
   25    25    26    1
   26    25    27    1
   27    27    28    1
   28    25    29    1
   29    29    30    1
   30    29    31    1
   31    31    32    1
   32     3    33    1
   33    29    33    1
   34    33    34    1
   35    33    35    1
   36    35    36    1
   37    22    37    1
   38    35    37    1
   39    35    38    1
   40    38    39    1
   41    38    40    1
   42    38    41    1
   43    41    42    1
   44    43    44    1
   45    43    45    1
   46    43    46    1
   47    46    47    1
   48    46    48    1
   49    48    49    1
   50    46    50    1
   51    50    51    1
   52    50    52    1
   53    52    53    1
   54    24    54    1
   55    50    54    1
   56    54    55    1
   57    54    56    1
   58    56    57    1
   59    43    58    1
   60    56    58    1
   61    56    59    1
   62    59    60    1
   63    59    61    1
   64    59    62    1
   65    62    63    1
   66    64    65    1
   67    64    66    1
   68    64    67    1
   69    67    68    1
   70    67    69    1
   71    69    70    1
   72    67    71    1
   73    71    72    1
   74    71    73    1
   75    73    74    1
   76    45    75    1
   77    71    75    1
   78    75    76    1
   79    75    77    1
   80    77    78    1
   81    64    79    1
   82    77    79    1
   83    77    80    1
   84    80    81    1
   85    80    82    1
   86    80    83    1
   87    83    84    1
   88    85    86    1
   89    85    87    1
   90    85    88    1
   91    88    89    1
   92    88    90    1
   93    90    91    1
   94    88    92    1
   95    92    93    1
   96    92    94    1
   97    94    95    1
   98    66    96    1
   99    92    96    1
  100    96    97    1
  101    96    98    1
  102    98    99    1
  103    85   100    1
  104    98   100    1
  105    98   101    1
  106   101   102    1
  107   101   103    1
  108   101   104    1
  109   104   105    1
  110   106   107    1
  111    12   108    1
  112   106   108    1
  113   106   109    1
  114   109   110    1
  115   109   111    1
  116   111   112    1
  117   109   113    1
  118   113   114    1
  119   113   115    1
  120   115   116    1
  121    87   117    1
  122   113   117    1
  123   117   118    1
  124   117   119    1
  125   119   120    1
  126   106   121    1
  127   119   121    1
  128   119   122    1
  129   122   123    1
  130   122   124    1
  131   122   125    1
  132   125   126    1
  133   127   128    1
  134   127   129    1
  135   127   130    2
  136   130   131    1
  137   130   132    1
  138   132   133    1
  139   132   134    1
  140   132   135    1
  141   135   136    1
  142   135   137    1
  143   135   138    1
  144   138   139    1
  145   138   140    1
  146   138   141    1
  147   141   142    1
  148   141   143    1
  149   141   144    1
  150   144   145    1
  151   144   146    2
@<TRIPOS>SUBSTRUCTURE
       1 MOL1            1 RESIDUE      1      MOL     
       2 MOL1          146 RESIDUE      1      MOL     
@<SCITEGIC>MOL_PROPERTY
VM2 Rank
SciTegic.value.IntegerValue
3

@<SCITEGIC>MOL_PROPERTY
Conf_Id
SciTegic.value.IntegerValue
26690

@<SCITEGIC>MOL_PROPERTY
Probability
SciTegic.value.DoubleValue
3.24

@<SCITEGIC>MOL_PROPERTY
Sum Probability
SciTegic.value.DoubleValue
12.95

@<SCITEGIC>MOL_PROPERTY
Delta G
SciTegic.value.DoubleValue
0.382

@<SCITEGIC>MOL_PROPERTY
G
SciTegic.value.DoubleValue
492.444

@<SCITEGIC>MOL_PROPERTY
E
SciTegic.value.DoubleValue
304.755

@<SCITEGIC>MOL_PROPERTY
-TS
SciTegic.value.DoubleValue
187.689

@<SCITEGIC>MOL_PROPERTY
U+W
SciTegic.value.DoubleValue
175.984

@<SCITEGIC>MOL_PROPERTY
U
SciTegic.value.DoubleValue
248.815

@<SCITEGIC>MOL_PROPERTY
W
SciTegic.value.DoubleValue
-72.831

@<SCITEGIC>MOL_PROPERTY
W(PB)
SciTegic.value.DoubleValue
-78.939

@<SCITEGIC>MOL_PROPERTY
W(SA)
SciTegic.value.DoubleValue
6.107

@<SCITEGIC>MOL_PROPERTY
Valence
SciTegic.value.DoubleValue
151.424

@<SCITEGIC>MOL_PROPERTY
Coulomb
SciTegic.value.DoubleValue
122.910

@<SCITEGIC>MOL_PROPERTY
VdW
SciTegic.value.DoubleValue
-25.520

@<SCITEGIC>MOL_PROPERTY
VdW6
SciTegic.value.DoubleValue
-180.663

@<SCITEGIC>MOL_PROPERTY
VdW12
SciTegic.value.DoubleValue
155.143

@<SCITEGIC>MOL_PROPERTY
Bond
SciTegic.value.DoubleValue
4.531

@<SCITEGIC>MOL_PROPERTY
Angle
SciTegic.value.DoubleValue
11.551

@<SCITEGIC>MOL_PROPERTY
Pdih
SciTegic.value.DoubleValue
135.342

@<SCITEGIC>MOL_PROPERTY
Idih
SciTegic.value.DoubleValue
0.001

@<SCITEGIC>MOL_PROPERTY
Tether
SciTegic.value.DoubleValue
0.000

@<TRIPOS>MOLECULE
CD_guest-s22_vm2_rndm.mol2 : vm2 host+ligand conformer 4
         146         151           2
SMALL
USER_CHARGES
 
@<TRIPOS>ATOM
       1    C1      16.207851   15.309750   21.709394 C.3        1 MOL1         0.2972
       2    H1      15.133051   15.173772   21.883960 H          1 MOL1         0.0751
       3    O1      16.499043   16.605410   21.147018 O.3        1 MOL1        -0.3740
       4    C2      16.992942   15.144347   23.033858 C.3        1 MOL1         0.1003
       5    H2      16.826810   14.117377   23.384425 H          1 MOL1         0.0783
       6    O2      16.538490   16.058660   24.040414 O.3        1 MOL1        -0.5519
       7    H3      17.229089   16.015781   24.739560 H          1 MOL1         0.3769
       8    C3      18.509804   15.321708   22.799108 C.3        1 MOL1         0.1053
       9    H4      18.698456   16.369392   22.528310 H          1 MOL1         0.0783
      10    O3      19.211380   14.988253   24.002440 O.3        1 MOL1        -0.5519
      11    H5      20.106531   14.675745   23.728143 H          1 MOL1         0.3769
      12    C4      19.016791   14.426649   21.641071 C.3        1 MOL1         0.1018
      13    H6      19.109856   13.396958   22.012184 H          1 MOL1         0.0783
      14    C5      18.086302   14.461238   20.393027 C.3        1 MOL1         0.1043
      15    H7      18.216670   15.429367   19.893275 H          1 MOL1         0.0783
      16    O4      16.701847   14.308088   20.795120 O.3        1 MOL1        -0.3740
      17    C6      18.396274   13.360646   19.354026 C.3        1 MOL1         0.0138
      18    H8      19.393243   13.538073   18.929694 H          1 MOL1         0.0794
      19    H9      17.674157   13.440700   18.530368 H          1 MOL1         0.0794
      20    O5      18.334011   12.058646   19.943331 O.3        1 MOL1        -0.5486
      21    H10     17.429757   11.969151   20.318584 H          1 MOL1         0.3769
      22    C7      14.764361   20.254255   20.372521 C.3        1 MOL1         0.2972
      23    H11     14.165875   21.117144   20.053226 H          1 MOL1         0.0751
      24    O6      16.082942   20.654012   20.803310 O.3        1 MOL1        -0.3740
      25    C8      14.056231   19.468128   21.507246 C.3        1 MOL1         0.1003
      26    H12     13.129733   19.056584   21.086871 H          1 MOL1         0.0783
      27    O7      13.716832   20.333759   22.601100 O.3        1 MOL1        -0.5519
      28    H13     14.566703   20.582565   23.042221 H          1 MOL1         0.3769
      29    C9      14.940656   18.275376   21.960242 C.3        1 MOL1         0.1053
      30    H14     15.849389   18.682962   22.424699 H          1 MOL1         0.0783
      31    O8      14.238379   17.465309   22.910324 O.3        1 MOL1        -0.5519
      32    H15     14.934031   16.973035   23.411476 H          1 MOL1         0.3769
      33    C10     15.367310   17.400838   20.745742 C.3        1 MOL1         0.1018
      34    H16     14.524302   16.768993   20.436051 H          1 MOL1         0.0783
      35    C11     15.838809   18.233706   19.520491 C.3        1 MOL1         0.1043
      36    H17     16.841934   18.625344   19.729026 H          1 MOL1         0.0783
      37    O9      14.928767   19.334859   19.273959 O.3        1 MOL1        -0.3740
      38    C12     15.931895   17.397251   18.225538 C.3        1 MOL1         0.0138
      39    H18     16.628983   16.564331   18.386795 H          1 MOL1         0.0794
      40    H19     16.350523   18.027214   17.429350 H          1 MOL1         0.0794
      41    O10     14.646860   16.899142   17.841002 O.3        1 MOL1        -0.5486
      42    H20     14.054301   17.682582   17.798666 H          1 MOL1         0.3769
      43    C13     18.406466   23.817696   22.019298 C.3        1 MOL1         0.2972
      44    H21     18.827449   24.769860   22.365659 H          1 MOL1         0.0751
      45    O11     19.430187   22.937615   21.506337 O.3        1 MOL1        -0.3740
      46    C14     17.677664   23.101946   23.183442 C.3        1 MOL1         0.1003
      47    H22     16.855813   23.753229   23.507749 H          1 MOL1         0.0783
      48    O12     18.588235   22.914879   24.280677 O.3        1 MOL1        -0.5519
      49    H23     18.295293   22.118876   24.795383 H          1 MOL1         0.3769
      50    C15     17.056648   21.764697   22.699373 C.3        1 MOL1         0.1053
      51    H24     17.872486   21.066970   22.474362 H          1 MOL1         0.0783
      52    O13     16.214197   21.217901   23.721931 O.3        1 MOL1        -0.5519
      53    H25     16.810943   20.892994   24.445535 H          1 MOL1         0.3769
      54    C16     16.217416   21.955251   21.405745 C.3        1 MOL1         0.1018
      55    H26     15.243918   22.383916   21.678169 H          1 MOL1         0.0783
      56    C17     16.911831   22.856870   20.347404 C.3        1 MOL1         0.1043
      57    H27     17.731065   22.282843   19.895415 H          1 MOL1         0.0783
      58    O14     17.440899   24.049449   20.973841 O.3        1 MOL1        -0.3740
      59    C18     15.972905   23.301411   19.203897 C.3        1 MOL1         0.0138
      60    H28     15.651563   22.415821   18.639819 H          1 MOL1         0.0794
      61    H29     16.538311   23.940791   18.512655 H          1 MOL1         0.0794
      62    O15     14.834408   24.003700   19.710945 O.3        1 MOL1        -0.5486
      63    H30     15.187432   24.759181   20.231745 H          1 MOL1         0.3769
      64    C19     23.586450   22.769757   21.231550 C.3        1 MOL1         0.2972
      65    H31     24.645351   22.984985   21.039730 H          1 MOL1         0.0751
      66    O16     23.376203   21.392062   21.592056 O.3        1 MOL1        -0.3740
      67    C20     23.049334   23.653169   22.385921 C.3        1 MOL1         0.1003
      68    H32     23.168757   24.701535   22.083143 H          1 MOL1         0.0783
      69    O17     23.778545   23.423261   23.600078 O.3        1 MOL1        -0.5519
      70    H33     23.270037   23.908503   24.288356 H          1 MOL1         0.3769
      71    C21     21.543177   23.391782   22.625569 C.3        1 MOL1         0.1053
      72    H34     21.436170   22.363709   22.995817 H          1 MOL1         0.0783
      73    O18     21.058658   24.310319   23.612419 O.3        1 MOL1        -0.5519
      74    H35     20.218046   23.916570   23.956367 H          1 MOL1         0.3769
      75    C22     20.734026   23.516293   21.304024 C.3        1 MOL1         0.1018
      76    H36     20.660158   24.571896   21.010856 H          1 MOL1         0.0783
      77    C23     21.392444   22.717287   20.146740 C.3        1 MOL1         0.1043
      78    H37     21.273597   21.644176   20.350582 H          1 MOL1         0.0783
      79    O19     22.799425   23.051251   20.055698 O.3        1 MOL1        -0.3740
      80    C24     20.758011   23.012737   18.769452 C.3        1 MOL1         0.0138
      81    H38     19.693175   22.749190   18.799445 H          1 MOL1         0.0794
      82    H39     21.234788   22.369775   18.017715 H          1 MOL1         0.0794
      83    O20     20.915888   24.389477   18.414091 O.3        1 MOL1        -0.5486
      84    H40     21.876563   24.581393   18.496178 H          1 MOL1         0.3769
      85    C25     25.182388   17.694070   21.679784 C.3        1 MOL1         0.2972
      86    H41     25.862036   16.832851   21.695334 H          1 MOL1         0.0751
      87    O21     23.804053   17.289125   21.559180 O.3        1 MOL1        -0.3740
      88    C26     25.343734   18.520671   22.979133 C.3        1 MOL1         0.1003
      89    H42     26.376559   18.891777   23.006786 H          1 MOL1         0.0783
      90    O22     25.098533   17.720000   24.143482 O.3        1 MOL1        -0.5519
      91    H43     25.036615   18.369108   24.880189 H          1 MOL1         0.3769
      92    C27     24.399010   19.742912   22.968712 C.3        1 MOL1         0.1053
      93    H44     23.366136   19.375943   23.024903 H          1 MOL1         0.0783
      94    O23     24.682270   20.581038   24.096100 O.3        1 MOL1        -0.5519
      95    H45     24.223963   21.441379   23.929532 H          1 MOL1         0.3769
      96    C28     24.550649   20.565132   21.666431 C.3        1 MOL1         0.1018
      97    H46     25.471447   21.158688   21.740868 H          1 MOL1         0.0783
      98    C29     24.587945   19.685197   20.384743 C.3        1 MOL1         0.1043
      99    H47     23.573765   19.306147   20.201621 H          1 MOL1         0.0783
     100    O24     25.489754   18.564960   20.571380 O.3        1 MOL1        -0.3740
     101    C30     25.024211   20.456008   19.115779 C.3        1 MOL1         0.0138
     102    H48     24.212173   21.135347   18.824389 H          1 MOL1         0.0794
     103    H49     25.154797   19.735781   18.297041 H          1 MOL1         0.0794
     104    O25     26.231529   21.201112   19.321536 O.3        1 MOL1        -0.5486
     105    H50     26.472063   21.619367   18.466305 H          1 MOL1         0.3769
     106    C31     21.327919   14.018001   20.944306 C.3        1 MOL1         0.2972
     107    H51     20.907339   13.039183   20.680508 H          1 MOL1         0.0751
     108    O26     20.291717   14.971274   21.250445 O.3        1 MOL1        -0.3740
     109    C32     22.290796   13.896631   22.156034 C.3        1 MOL1         0.1003
     110    H52     23.091859   13.204275   21.866045 H          1 MOL1         0.0783
     111    O27     21.625293   13.383788   23.317484 O.3        1 MOL1        -0.5519
     112    H53     22.295386   13.443575   24.035328 H          1 MOL1         0.3769
     113    C33     22.940753   15.259616   22.490272 C.3        1 MOL1         0.1053
     114    H54     22.154694   15.930567   22.863666 H          1 MOL1         0.0783
     115    O28     23.942877   15.076472   23.497902 O.3        1 MOL1        -0.5519
     116    H55     24.280218   15.978218   23.728056 H          1 MOL1         0.3769
     117    C34     23.570625   15.907855   21.232494 C.3        1 MOL1         0.1018
     118    H56     24.498182   15.379757   20.974722 H          1 MOL1         0.0783
     119    C35     22.616114   15.879791   20.010187 C.3        1 MOL1         0.1043
     120    H57     21.798898   16.588356   20.192629 H          1 MOL1         0.0783
     121    O29     22.085302   14.542235   19.833605 O.3        1 MOL1        -0.3740
     122    C36     23.308863   16.286535   18.691130 C.3        1 MOL1         0.0138
     123    H58     23.709827   17.303111   18.793497 H          1 MOL1         0.0794
     124    H59     22.556564   16.309120   17.891433 H          1 MOL1         0.0794
     125    O30     24.358870   15.372739   18.360111 O.3        1 MOL1        -0.5486
     126    H60     23.951371   14.478076   18.368172 H          1 MOL1         0.3769
     127    C1      20.061140   18.973452   18.525445 C.2        1 MOL1        -0.2535
     128    H1      20.150706   20.057005   18.498938 H          1 MOL1         0.0845
     129    H2      20.270831   18.429371   17.606582 H          1 MOL1         0.0845
     130    C2      19.707457   18.332006   19.641571 C.2        1 MOL1        -0.1324
     131    H3      19.620321   17.247214   19.648213 H          1 MOL1         0.0833
     132    C3      19.398079   19.016094   20.953536 C.3        1 MOL1        -0.1813
     133    H4      18.477696   18.593814   21.372985 H          1 MOL1         0.0753
     134    H5      19.208530   20.084547   20.787401 H          1 MOL1         0.0753
     135    C4      20.559066   18.850342   21.958008 C.3        1 MOL1        -0.1855
     136    H6      20.764269   17.784121   22.119128 H          1 MOL1         0.0755
     137    H7      21.467379   19.278828   21.515625 H          1 MOL1         0.0755
     138    C5      20.291850   19.537775   23.317831 C.3        1 MOL1        -0.1855
     139    H8      20.014154   20.586070   23.153961 H          1 MOL1         0.0755
     140    H9      21.222332   19.553512   23.900460 H          1 MOL1         0.0755
     141    C6      19.198357   18.833102   24.162742 C.3        1 MOL1        -0.1958
     142    H10     18.244417   18.802401   23.625460 H          1 MOL1         0.0753
     143    H11     19.491343   17.796376   24.363340 H          1 MOL1         0.0753
     144    C7      18.953768   19.517543   25.503049 C.2        1 MOL1         0.6174
     145    O1      19.572580   19.125277   26.472353 O.co2      1 MOL1        -0.6695
     146    O2      18.160643   20.440547   25.531994 O.co2      1 MOL1        -0.6695
@<TRIPOS>BOND
    1     1     2    1
    2     1     3    1
    3     1     4    1
    4     4     5    1
    5     4     6    1
    6     6     7    1
    7     4     8    1
    8     8     9    1
    9     8    10    1
   10    10    11    1
   11     8    12    1
   12    12    13    1
   13    12    14    1
   14    14    15    1
   15     1    16    1
   16    14    16    1
   17    14    17    1
   18    17    18    1
   19    17    19    1
   20    17    20    1
   21    20    21    1
   22    22    23    1
   23    22    24    1
   24    22    25    1
   25    25    26    1
   26    25    27    1
   27    27    28    1
   28    25    29    1
   29    29    30    1
   30    29    31    1
   31    31    32    1
   32     3    33    1
   33    29    33    1
   34    33    34    1
   35    33    35    1
   36    35    36    1
   37    22    37    1
   38    35    37    1
   39    35    38    1
   40    38    39    1
   41    38    40    1
   42    38    41    1
   43    41    42    1
   44    43    44    1
   45    43    45    1
   46    43    46    1
   47    46    47    1
   48    46    48    1
   49    48    49    1
   50    46    50    1
   51    50    51    1
   52    50    52    1
   53    52    53    1
   54    24    54    1
   55    50    54    1
   56    54    55    1
   57    54    56    1
   58    56    57    1
   59    43    58    1
   60    56    58    1
   61    56    59    1
   62    59    60    1
   63    59    61    1
   64    59    62    1
   65    62    63    1
   66    64    65    1
   67    64    66    1
   68    64    67    1
   69    67    68    1
   70    67    69    1
   71    69    70    1
   72    67    71    1
   73    71    72    1
   74    71    73    1
   75    73    74    1
   76    45    75    1
   77    71    75    1
   78    75    76    1
   79    75    77    1
   80    77    78    1
   81    64    79    1
   82    77    79    1
   83    77    80    1
   84    80    81    1
   85    80    82    1
   86    80    83    1
   87    83    84    1
   88    85    86    1
   89    85    87    1
   90    85    88    1
   91    88    89    1
   92    88    90    1
   93    90    91    1
   94    88    92    1
   95    92    93    1
   96    92    94    1
   97    94    95    1
   98    66    96    1
   99    92    96    1
  100    96    97    1
  101    96    98    1
  102    98    99    1
  103    85   100    1
  104    98   100    1
  105    98   101    1
  106   101   102    1
  107   101   103    1
  108   101   104    1
  109   104   105    1
  110   106   107    1
  111    12   108    1
  112   106   108    1
  113   106   109    1
  114   109   110    1
  115   109   111    1
  116   111   112    1
  117   109   113    1
  118   113   114    1
  119   113   115    1
  120   115   116    1
  121    87   117    1
  122   113   117    1
  123   117   118    1
  124   117   119    1
  125   119   120    1
  126   106   121    1
  127   119   121    1
  128   119   122    1
  129   122   123    1
  130   122   124    1
  131   122   125    1
  132   125   126    1
  133   127   128    1
  134   127   129    1
  135   127   130    2
  136   130   131    1
  137   130   132    1
  138   132   133    1
  139   132   134    1
  140   132   135    1
  141   135   136    1
  142   135   137    1
  143   135   138    1
  144   138   139    1
  145   138   140    1
  146   138   141    1
  147   141   142    1
  148   141   143    1
  149   141   144    1
  150   144   145    1
  151   144   146    2
@<TRIPOS>SUBSTRUCTURE
       1 MOL1            1 RESIDUE      1      MOL     
       2 MOL1          146 RESIDUE      1      MOL     
@<SCITEGIC>MOL_PROPERTY
VM2 Rank
SciTegic.value.IntegerValue
4

@<SCITEGIC>MOL_PROPERTY
Conf_Id
SciTegic.value.IntegerValue
27142

@<SCITEGIC>MOL_PROPERTY
Probability
SciTegic.value.DoubleValue
2.97

@<SCITEGIC>MOL_PROPERTY
Sum Probability
SciTegic.value.DoubleValue
15.92

@<SCITEGIC>MOL_PROPERTY
Delta G
SciTegic.value.DoubleValue
0.434

@<SCITEGIC>MOL_PROPERTY
G
SciTegic.value.DoubleValue
492.496

@<SCITEGIC>MOL_PROPERTY
E
SciTegic.value.DoubleValue
305.022

@<SCITEGIC>MOL_PROPERTY
-TS
SciTegic.value.DoubleValue
187.474

@<SCITEGIC>MOL_PROPERTY
U+W
SciTegic.value.DoubleValue
176.251

@<SCITEGIC>MOL_PROPERTY
U
SciTegic.value.DoubleValue
250.278

@<SCITEGIC>MOL_PROPERTY
W
SciTegic.value.DoubleValue
-74.027

@<SCITEGIC>MOL_PROPERTY
W(PB)
SciTegic.value.DoubleValue
-80.179

@<SCITEGIC>MOL_PROPERTY
W(SA)
SciTegic.value.DoubleValue
6.152

@<SCITEGIC>MOL_PROPERTY
Valence
SciTegic.value.DoubleValue
150.799

@<SCITEGIC>MOL_PROPERTY
Coulomb
SciTegic.value.DoubleValue
124.728

@<SCITEGIC>MOL_PROPERTY
VdW
SciTegic.value.DoubleValue
-25.249

@<SCITEGIC>MOL_PROPERTY
VdW6
SciTegic.value.DoubleValue
-180.838

@<SCITEGIC>MOL_PROPERTY
VdW12
SciTegic.value.DoubleValue
155.589

@<SCITEGIC>MOL_PROPERTY
Bond
SciTegic.value.DoubleValue
4.552

@<SCITEGIC>MOL_PROPERTY
Angle
SciTegic.value.DoubleValue
11.770

@<SCITEGIC>MOL_PROPERTY
Pdih
SciTegic.value.DoubleValue
134.476

@<SCITEGIC>MOL_PROPERTY
Idih
SciTegic.value.DoubleValue
0.001

@<SCITEGIC>MOL_PROPERTY
Tether
SciTegic.value.DoubleValue
0.000

@<TRIPOS>MOLECULE
CD_guest-s22_vm2_rndm.mol2 : vm2 host+ligand conformer 5
         146         151           2
SMALL
USER_CHARGES
 
@<TRIPOS>ATOM
       1    C1      16.200042   15.308005   21.695484 C.3        1 MOL1         0.2972
       2    H1      15.123987   15.173137   21.863016 H          1 MOL1         0.0751
       3    O1      16.496197   16.603155   21.134402 O.3        1 MOL1        -0.3740
       4    C2      16.976400   15.141961   23.025030 C.3        1 MOL1         0.1003
       5    H2      16.807363   14.115015   23.374288 H          1 MOL1         0.0783
       6    O2      16.516511   16.056161   24.029153 O.3        1 MOL1        -0.5519
       7    H3      17.203079   16.012649   24.732248 H          1 MOL1         0.3769
       8    C3      18.494765   15.318291   22.800073 C.3        1 MOL1         0.1053
       9    H4      18.686042   16.365638   22.529669 H          1 MOL1         0.0783
      10    O3      19.187708   14.985325   24.008510 O.3        1 MOL1        -0.5519
      11    H5      20.085705   14.674830   23.741141 H          1 MOL1         0.3769
      12    C4      19.008365   14.421882   21.646025 C.3        1 MOL1         0.1018
      13    H6      19.098490   13.392420   22.018502 H          1 MOL1         0.0783
      14    C5      18.086176   14.456250   20.391949 C.3        1 MOL1         0.1043
      15    H7      18.221302   15.423631   19.891892 H          1 MOL1         0.0783
      16    O4      16.698799   14.305391   20.784828 O.3        1 MOL1        -0.3740
      17    C6      18.402107   13.353676   19.356858 C.3        1 MOL1         0.0138
      18    H8      19.403453   13.527555   18.941358 H          1 MOL1         0.0794
      19    H9      17.687610   13.434982   18.526709 H          1 MOL1         0.0794
      20    O5      18.330539   12.052581   19.947142 O.3        1 MOL1        -0.5486
      21    H10     17.423017   11.966851   20.315346 H          1 MOL1         0.3769
      22    C7      14.769006   20.256447   20.360986 C.3        1 MOL1         0.2972
      23    H11     14.172582   21.120390   20.040709 H          1 MOL1         0.0751
      24    O6      16.085437   20.654675   20.799505 O.3        1 MOL1        -0.3740
      25    C8      14.054353   19.467963   21.489992 C.3        1 MOL1         0.1003
      26    H12     13.129242   19.059170   21.063915 H          1 MOL1         0.0783
      27    O7      13.711148   20.330608   22.585064 O.3        1 MOL1        -0.5519
      28    H13     14.559188   20.574182   23.032616 H          1 MOL1         0.3769
      29    C9      14.934461   18.272508   21.944051 C.3        1 MOL1         0.1053
      30    H14     15.840870   18.677245   22.415506 H          1 MOL1         0.0783
      31    O8      14.224655   17.460665   22.886974 O.3        1 MOL1        -0.5519
      32    H15     14.916400   16.968021   23.393135 H          1 MOL1         0.3769
      33    C10     15.367570   17.401262   20.729430 C.3        1 MOL1         0.1018
      34    H16     14.525775   16.771299   20.412689 H          1 MOL1         0.0783
      35    C11     15.847157   18.237539   19.509722 C.3        1 MOL1         0.1043
      36    H17     16.849274   18.627881   19.725729 H          1 MOL1         0.0783
      37    O9      14.939075   19.339829   19.260964 O.3        1 MOL1        -0.3740
      38    C12     15.947727   17.404921   18.212839 C.3        1 MOL1         0.0138
      39    H18     16.643314   16.571081   18.375894 H          1 MOL1         0.0794
      40    H19     16.371623   18.037012   17.421137 H          1 MOL1         0.0794
      41    O10     14.664798   16.908748   17.818878 O.3        1 MOL1        -0.5486
      42    H20     14.072949   17.692661   17.775306 H          1 MOL1         0.3769
      43    C13     18.400843   23.813160   22.041833 C.3        1 MOL1         0.2972
      44    H21     18.820356   24.763136   22.395952 H          1 MOL1         0.0751
      45    O11     19.426187   22.937979   21.523866 O.3        1 MOL1        -0.3740
      46    C14     17.671424   23.088152   23.199720 C.3        1 MOL1         0.1003
      47    H22     16.848354   23.736030   23.527732 H          1 MOL1         0.0783
      48    O12     18.581171   22.894425   24.296462 O.3        1 MOL1        -0.5519
      49    H23     18.285428   22.097731   24.808463 H          1 MOL1         0.3769
      50    C15     17.052852   21.753604   22.705176 C.3        1 MOL1         0.1053
      51    H24     17.869990   21.058251   22.477241 H          1 MOL1         0.0783
      52    O13     16.208499   21.198957   23.721998 O.3        1 MOL1        -0.5519
      53    H25     16.803608   20.871034   24.445597 H          1 MOL1         0.3769
      54    C16     16.216079   21.952024   21.411098 C.3        1 MOL1         0.1018
      55    H26     15.241241   22.376949   21.684528 H          1 MOL1         0.0783
      56    C17     16.910564   22.862608   20.360541 C.3        1 MOL1         0.1043
      57    H27     17.731389   22.293180   19.905719 H          1 MOL1         0.0783
      58    O14     17.436581   24.051369   20.996686 O.3        1 MOL1        -0.3740
      59    C18     15.972995   23.314148   19.218663 C.3        1 MOL1         0.0138
      60    H28     15.654707   22.432377   18.646943 H          1 MOL1         0.0794
      61    H29     16.538466   23.960130   18.533634 H          1 MOL1         0.0794
      62    O15     14.831985   24.010048   19.728832 O.3        1 MOL1        -0.5486
      63    H30     15.182317   24.762258   20.256143 H          1 MOL1         0.3769
      64    C19     23.581747   22.782754   21.234390 C.3        1 MOL1         0.2972
      65    H31     24.639406   23.003504   21.042319 H          1 MOL1         0.0751
      66    O16     23.375938   21.399529   21.577904 O.3        1 MOL1        -0.3740
      67    C20     23.045387   23.652601   22.399452 C.3        1 MOL1         0.1003
      68    H32     23.160087   24.704309   22.106550 H          1 MOL1         0.0783
      69    O17     23.779670   23.414125   23.608649 O.3        1 MOL1        -0.5519
      70    H33     23.270779   23.889754   24.303398 H          1 MOL1         0.3769
      71    C21     21.540900   23.384084   22.641060 C.3        1 MOL1         0.1053
      72    H34     21.438075   22.351538   22.999778 H          1 MOL1         0.0783
      73    O18     21.056309   24.289964   23.639516 O.3        1 MOL1        -0.5519
      74    H35     20.215382   23.892340   23.978245 H          1 MOL1         0.3769
      75    C22     20.727847   23.521663   21.323357 C.3        1 MOL1         0.1018
      76    H36     20.650893   24.580333   21.042255 H          1 MOL1         0.0783
      77    C23     21.384777   22.737296   20.155371 C.3        1 MOL1         0.1043
      78    H37     21.269341   21.661708   20.347755 H          1 MOL1         0.0783
      79    O19     22.790568   23.076259   20.064396 O.3        1 MOL1        -0.3740
      80    C24     20.745865   23.046128   18.783078 C.3        1 MOL1         0.0138
      81    H38     19.682229   22.777881   18.812453 H          1 MOL1         0.0794
      82    H39     21.223409   22.413858   18.022798 H          1 MOL1         0.0794
      83    O20     20.897223   24.427514   18.443239 O.3        1 MOL1        -0.5486
      84    H40     21.857498   24.622176   18.523505 H          1 MOL1         0.3769
      85    C25     25.178606   17.696386   21.649367 C.3        1 MOL1         0.2972
      86    H41     25.860329   16.836685   21.653715 H          1 MOL1         0.0751
      87    O21     23.798877   17.287894   21.571357 O.3        1 MOL1        -0.3740
      88    C26     25.371914   18.532308   22.938264 C.3        1 MOL1         0.1003
      89    H42     26.406495   18.899377   22.940128 H          1 MOL1         0.0783
      90    O22     25.150477   17.740164   24.113283 O.3        1 MOL1        -0.5519
      91    H43     25.112142   18.393610   24.847664 H          1 MOL1         0.3769
      92    C27     24.431679   19.758587   22.941707 C.3        1 MOL1         0.1053
      93    H44     23.399085   19.396613   23.031292 H          1 MOL1         0.0783
      94    O23     24.751387   20.605058   24.052759 O.3        1 MOL1        -0.5519
      95    H45     24.276986   21.459902   23.902679 H          1 MOL1         0.3769
      96    C28     24.548783   20.568417   21.627423 C.3        1 MOL1         0.1018
      97    H46     25.473385   21.159494   21.666129 H          1 MOL1         0.0783
      98    C29     24.544713   19.674586   20.355063 C.3        1 MOL1         0.1043
      99    H47     23.524470   19.299425   20.199012 H          1 MOL1         0.0783
     100    O24     25.455311   18.559495   20.526266 O.3        1 MOL1        -0.3740
     101    C30     24.968472   20.427885   19.074744 C.3        1 MOL1         0.0138
     102    H48     24.241725   21.223736   18.867037 H          1 MOL1         0.0794
     103    H49     24.936996   19.728999   18.228284 H          1 MOL1         0.0794
     104    O25     26.281054   20.980145   19.212751 O.3        1 MOL1        -0.5486
     105    H50     26.871771   20.227067   19.437506 H          1 MOL1         0.3769
     106    C31     21.325024   14.011036   20.969041 C.3        1 MOL1         0.2972
     107    H51     20.907317   13.029315   20.711589 H          1 MOL1         0.0751
     108    O26     20.285651   14.965352   21.262204 O.3        1 MOL1        -0.3740
     109    C32     22.281294   13.902013   22.187083 C.3        1 MOL1         0.1003
     110    H52     23.087381   13.211633   21.906316 H          1 MOL1         0.0783
     111    O27     21.611533   13.394542   23.348508 O.3        1 MOL1        -0.5519
     112    H53     22.276561   13.465481   24.070097 H          1 MOL1         0.3769
     113    C33     22.922219   15.270763   22.514130 C.3        1 MOL1         0.1053
     114    H54     22.130291   15.943612   22.870936 H          1 MOL1         0.0783
     115    O28     23.914781   15.104059   23.534370 O.3        1 MOL1        -0.5519
     116    H55     24.266436   16.006981   23.736760 H          1 MOL1         0.3769
     117    C34     23.563468   15.904096   21.255386 C.3        1 MOL1         0.1018
     118    H56     24.490960   15.367823   21.015300 H          1 MOL1         0.0783
     119    C35     22.621189   15.863027   20.023752 C.3        1 MOL1         0.1043
     120    H57     21.799425   16.568301   20.197341 H          1 MOL1         0.0783
     121    O29     22.086426   14.526073   19.857471 O.3        1 MOL1        -0.3740
     122    C36     23.317926   16.278879   18.706656 C.3        1 MOL1         0.0138
     123    H58     23.556089   17.348879   18.763410 H          1 MOL1         0.0794
     124    H59     22.609062   16.145825   17.878583 H          1 MOL1         0.0794
     125    O30     24.514808   15.527004   18.466268 O.3        1 MOL1        -0.5486
     126    H60     24.897247   15.839229   17.617933 H          1 MOL1         0.3769
     127    C1      20.108602   18.979717   18.536889 C.2        1 MOL1        -0.2535
     128    H1      20.217250   20.061724   18.519009 H          1 MOL1         0.0845
     129    H2      20.322463   18.438024   17.617579 H          1 MOL1         0.0845
     130    C2      19.727731   18.337246   19.643479 C.2        1 MOL1        -0.1324
     131    H3      19.622304   17.253957   19.641880 H          1 MOL1         0.0833
     132    C3      19.411095   19.018237   20.955340 C.3        1 MOL1        -0.1813
     133    H4      18.487931   18.595867   21.368745 H          1 MOL1         0.0753
     134    H5      19.223483   20.087296   20.790797 H          1 MOL1         0.0753
     135    C4      20.567021   18.848845   21.964904 C.3        1 MOL1        -0.1855
     136    H6      20.770963   17.782007   22.122938 H          1 MOL1         0.0755
     137    H7      21.477445   19.278627   21.528538 H          1 MOL1         0.0755
     138    C5      20.294511   19.531553   23.325818 C.3        1 MOL1        -0.1855
     139    H8      20.014127   20.579514   23.164385 H          1 MOL1         0.0755
     140    H9      21.223929   19.547860   23.910338 H          1 MOL1         0.0755
     141    C6      19.200721   18.821166   24.165444 C.3        1 MOL1        -0.1958
     142    H10     18.248634   18.788857   23.624898 H          1 MOL1         0.0753
     143    H11     19.496446   17.784880   24.364182 H          1 MOL1         0.0753
     144    C7      18.949925   19.500997   25.506925 C.2        1 MOL1         0.6174
     145    O1      19.573230   19.113523   26.475279 O.co2      1 MOL1        -0.6695
     146    O2      18.148235   20.416503   25.537554 O.co2      1 MOL1        -0.6695
@<TRIPOS>BOND
    1     1     2    1
    2     1     3    1
    3     1     4    1
    4     4     5    1
    5     4     6    1
    6     6     7    1
    7     4     8    1
    8     8     9    1
    9     8    10    1
   10    10    11    1
   11     8    12    1
   12    12    13    1
   13    12    14    1
   14    14    15    1
   15     1    16    1
   16    14    16    1
   17    14    17    1
   18    17    18    1
   19    17    19    1
   20    17    20    1
   21    20    21    1
   22    22    23    1
   23    22    24    1
   24    22    25    1
   25    25    26    1
   26    25    27    1
   27    27    28    1
   28    25    29    1
   29    29    30    1
   30    29    31    1
   31    31    32    1
   32     3    33    1
   33    29    33    1
   34    33    34    1
   35    33    35    1
   36    35    36    1
   37    22    37    1
   38    35    37    1
   39    35    38    1
   40    38    39    1
   41    38    40    1
   42    38    41    1
   43    41    42    1
   44    43    44    1
   45    43    45    1
   46    43    46    1
   47    46    47    1
   48    46    48    1
   49    48    49    1
   50    46    50    1
   51    50    51    1
   52    50    52    1
   53    52    53    1
   54    24    54    1
   55    50    54    1
   56    54    55    1
   57    54    56    1
   58    56    57    1
   59    43    58    1
   60    56    58    1
   61    56    59    1
   62    59    60    1
   63    59    61    1
   64    59    62    1
   65    62    63    1
   66    64    65    1
   67    64    66    1
   68    64    67    1
   69    67    68    1
   70    67    69    1
   71    69    70    1
   72    67    71    1
   73    71    72    1
   74    71    73    1
   75    73    74    1
   76    45    75    1
   77    71    75    1
   78    75    76    1
   79    75    77    1
   80    77    78    1
   81    64    79    1
   82    77    79    1
   83    77    80    1
   84    80    81    1
   85    80    82    1
   86    80    83    1
   87    83    84    1
   88    85    86    1
   89    85    87    1
   90    85    88    1
   91    88    89    1
   92    88    90    1
   93    90    91    1
   94    88    92    1
   95    92    93    1
   96    92    94    1
   97    94    95    1
   98    66    96    1
   99    92    96    1
  100    96    97    1
  101    96    98    1
  102    98    99    1
  103    85   100    1
  104    98   100    1
  105    98   101    1
  106   101   102    1
  107   101   103    1
  108   101   104    1
  109   104   105    1
  110   106   107    1
  111    12   108    1
  112   106   108    1
  113   106   109    1
  114   109   110    1
  115   109   111    1
  116   111   112    1
  117   109   113    1
  118   113   114    1
  119   113   115    1
  120   115   116    1
  121    87   117    1
  122   113   117    1
  123   117   118    1
  124   117   119    1
  125   119   120    1
  126   106   121    1
  127   119   121    1
  128   119   122    1
  129   122   123    1
  130   122   124    1
  131   122   125    1
  132   125   126    1
  133   127   128    1
  134   127   129    1
  135   127   130    2
  136   130   131    1
  137   130   132    1
  138   132   133    1
  139   132   134    1
  140   132   135    1
  141   135   136    1
  142   135   137    1
  143   135   138    1
  144   138   139    1
  145   138   140    1
  146   138   141    1
  147   141   142    1
  148   141   143    1
  149   141   144    1
  150   144   145    1
  151   144   146    2
@<TRIPOS>SUBSTRUCTURE
       1 MOL1            1 RESIDUE      1      MOL     
       2 MOL1          146 RESIDUE      1      MOL     
@<SCITEGIC>MOL_PROPERTY
VM2 Rank
SciTegic.value.IntegerValue
5

@<SCITEGIC>MOL_PROPERTY
Conf_Id
SciTegic.value.IntegerValue
26535

@<SCITEGIC>MOL_PROPERTY
Probability
SciTegic.value.DoubleValue
2.85

@<SCITEGIC>MOL_PROPERTY
Sum Probability
SciTegic.value.DoubleValue
18.77

@<SCITEGIC>MOL_PROPERTY
Delta G
SciTegic.value.DoubleValue
0.459

@<SCITEGIC>MOL_PROPERTY
G
SciTegic.value.DoubleValue
492.521

@<SCITEGIC>MOL_PROPERTY
E
SciTegic.value.DoubleValue
305.231

@<SCITEGIC>MOL_PROPERTY
-TS
SciTegic.value.DoubleValue
187.290

@<SCITEGIC>MOL_PROPERTY
U+W
SciTegic.value.DoubleValue
176.460

@<SCITEGIC>MOL_PROPERTY
U
SciTegic.value.DoubleValue
250.325

@<SCITEGIC>MOL_PROPERTY
W
SciTegic.value.DoubleValue
-73.865

@<SCITEGIC>MOL_PROPERTY
W(PB)
SciTegic.value.DoubleValue
-80.031

@<SCITEGIC>MOL_PROPERTY
W(SA)
SciTegic.value.DoubleValue
6.166

@<SCITEGIC>MOL_PROPERTY
Valence
SciTegic.value.DoubleValue
150.698

@<SCITEGIC>MOL_PROPERTY
Coulomb
SciTegic.value.DoubleValue
124.979

@<SCITEGIC>MOL_PROPERTY
VdW
SciTegic.value.DoubleValue
-25.352

@<SCITEGIC>MOL_PROPERTY
VdW6
SciTegic.value.DoubleValue
-180.676

@<SCITEGIC>MOL_PROPERTY
VdW12
SciTegic.value.DoubleValue
155.324

@<SCITEGIC>MOL_PROPERTY
Bond
SciTegic.value.DoubleValue
4.535

@<SCITEGIC>MOL_PROPERTY
Angle
SciTegic.value.DoubleValue
11.717

@<SCITEGIC>MOL_PROPERTY
Pdih
SciTegic.value.DoubleValue
134.446

@<SCITEGIC>MOL_PROPERTY
Idih
SciTegic.value.DoubleValue
0.001

@<SCITEGIC>MOL_PROPERTY
Tether
SciTegic.value.DoubleValue
0.000

@<TRIPOS>MOLECULE
CD_guest-s22_vm2_rndm.mol2 : vm2 host+ligand conformer 6
         146         151           2
SMALL
USER_CHARGES
 
@<TRIPOS>ATOM
       1    C1      16.262799   15.346953   21.749160 C.3        1 MOL1         0.2972
       2    H1      15.197570   15.223481   21.982639 H          1 MOL1         0.0751
       3    O1      16.526375   16.612474   21.112433 O.3        1 MOL1        -0.3740
       4    C2      17.114891   15.247013   23.040109 C.3        1 MOL1         0.1003
       5    H2      16.950030   14.245345   23.457867 H          1 MOL1         0.0783
       6    O2      16.725722   16.230083   24.012750 O.3        1 MOL1        -0.5519
       7    H3      15.865102   16.611022   23.714132 H          1 MOL1         0.3769
       8    C3      18.619693   15.390602   22.717027 C.3        1 MOL1         0.1053
       9    H4      18.797325   16.423560   22.389680 H          1 MOL1         0.0783
      10    O3      19.374979   15.117297   23.901735 O.3        1 MOL1        -0.5519
      11    H5      18.928493   15.641482   24.603703 H          1 MOL1         0.3769
      12    C4      19.060692   14.439744   21.575756 C.3        1 MOL1         0.1018
      13    H6      19.162934   13.425948   21.984643 H          1 MOL1         0.0783
      14    C5      18.067062   14.427706   20.378648 C.3        1 MOL1         0.1043
      15    H7      18.175679   15.372709   19.830966 H          1 MOL1         0.0783
      16    O4      16.705936   14.300293   20.859950 O.3        1 MOL1        -0.3740
      17    C6      18.320297   13.281102   19.374678 C.3        1 MOL1         0.0138
      18    H8      19.298519   13.431048   18.899110 H          1 MOL1         0.0794
      19    H9      17.561938   13.333294   18.581947 H          1 MOL1         0.0794
      20    O5      18.275421   12.005688   20.020946 O.3        1 MOL1        -0.5486
      21    H10     17.391023   11.943344   20.445768 H          1 MOL1         0.3769
      22    C7      14.740420   20.258647   20.427459 C.3        1 MOL1         0.2972
      23    H11     14.126655   21.119499   20.132363 H          1 MOL1         0.0751
      24    O6      16.058460   20.663908   20.850015 O.3        1 MOL1        -0.3740
      25    C8      14.061136   19.439895   21.555656 C.3        1 MOL1         0.1003
      26    H12     13.134038   19.025674   21.138342 H          1 MOL1         0.0783
      27    O7      13.729630   20.253432   22.690373 O.3        1 MOL1        -0.5519
      28    H13     14.580878   20.610009   23.050606 H          1 MOL1         0.3769
      29    C9      14.963339   18.253940   21.974241 C.3        1 MOL1         0.1053
      30    H14     15.876635   18.663414   22.428707 H          1 MOL1         0.0783
      31    O8      14.262757   17.454172   22.933665 O.3        1 MOL1        -0.5519
      32    H15     13.801974   18.101407   23.514795 H          1 MOL1         0.3769
      33    C10     15.377726   17.398633   20.743149 C.3        1 MOL1         0.1018
      34    H16     14.538268   16.759705   20.438543 H          1 MOL1         0.0783
      35    C11     15.821339   18.259107   19.525406 C.3        1 MOL1         0.1043
      36    H17     16.824119   18.656058   19.725805 H          1 MOL1         0.0783
      37    O9      14.899695   19.358665   19.311627 O.3        1 MOL1        -0.3740
      38    C12     15.902318   17.447034   18.214389 C.3        1 MOL1         0.0138
      39    H18     16.610312   16.618668   18.349941 H          1 MOL1         0.0794
      40    H19     16.302072   18.095305   17.423215 H          1 MOL1         0.0794
      41    O10     14.616245   16.942911   17.841277 O.3        1 MOL1        -0.5486
      42    H20     14.015880   17.721226   17.820048 H          1 MOL1         0.3769
      43    C13     18.388327   23.841906   22.006121 C.3        1 MOL1         0.2972
      44    H21     18.813852   24.797703   22.336609 H          1 MOL1         0.0751
      45    O11     19.406901   22.951977   21.499599 O.3        1 MOL1        -0.3740
      46    C14     17.663520   23.144759   23.184166 C.3        1 MOL1         0.1003
      47    H22     16.844528   23.802410   23.502778 H          1 MOL1         0.0783
      48    O12     18.578621   22.971735   24.279835 O.3        1 MOL1        -0.5519
      49    H23     18.293125   22.176890   24.800550 H          1 MOL1         0.3769
      50    C15     17.037574   21.801974   22.722145 C.3        1 MOL1         0.1053
      51    H24     17.850902   21.099938   22.502076 H          1 MOL1         0.0783
      52    O13     16.197716   21.269292   23.754253 O.3        1 MOL1        -0.5519
      53    H25     16.797800   20.952646   24.479010 H          1 MOL1         0.3769
      54    C16     16.192684   21.974465   21.430797 C.3        1 MOL1         0.1018
      55    H26     15.219584   22.404814   21.702297 H          1 MOL1         0.0783
      56    C17     16.881327   22.861293   20.356192 C.3        1 MOL1         0.1043
      57    H27     17.696593   22.280263   19.905926 H          1 MOL1         0.0783
      58    O14     17.416911   24.061177   20.963173 O.3        1 MOL1        -0.3740
      59    C18     15.934465   23.291844   19.213924 C.3        1 MOL1         0.0138
      60    H28     15.608453   22.399237   18.663707 H          1 MOL1         0.0794
      61    H29     16.495101   23.921953   18.510394 H          1 MOL1         0.0794
      62    O15     14.800041   24.001137   19.720449 O.3        1 MOL1        -0.5486
      63    H30     15.157166   24.764734   20.226429 H          1 MOL1         0.3769
      64    C19     23.561445   22.757728   21.204195 C.3        1 MOL1         0.2972
      65    H31     24.620344   22.964672   21.003253 H          1 MOL1         0.0751
      66    O16     23.345776   21.383318   21.575722 O.3        1 MOL1        -0.3740
      67    C20     23.035451   23.656492   22.352104 C.3        1 MOL1         0.1003
      68    H32     23.159717   24.700752   22.037284 H          1 MOL1         0.0783
      69    O17     23.769267   23.435985   23.564953 O.3        1 MOL1        -0.5519
      70    H33     23.269797   23.935864   24.249401 H          1 MOL1         0.3769
      71    C21     21.528866   23.407764   22.602421 C.3        1 MOL1         0.1053
      72    H34     21.418297   22.384914   22.985189 H          1 MOL1         0.0783
      73    O18     21.055230   24.340594   23.581081 O.3        1 MOL1        -0.5519
      74    H35     20.213380   23.956877   23.933201 H          1 MOL1         0.3769
      75    C22     20.712603   23.522349   21.284293 C.3        1 MOL1         0.1018
      76    H36     20.642085   24.575236   20.980745 H          1 MOL1         0.0783
      77    C23     21.360814   22.708597   20.131530 C.3        1 MOL1         0.1043
      78    H37     21.236689   21.638233   20.345905 H          1 MOL1         0.0783
      79    O19     22.769377   23.033294   20.030366 O.3        1 MOL1        -0.3740
      80    C24     20.720969   22.994473   18.754740 C.3        1 MOL1         0.0138
      81    H38     19.654866   22.737103   18.792786 H          1 MOL1         0.0794
      82    H39     21.190320   22.341678   18.006795 H          1 MOL1         0.0794
      83    O20     20.884435   24.366898   18.385385 O.3        1 MOL1        -0.5486
      84    H40     21.846747   24.553982   18.458983 H          1 MOL1         0.3769
      85    C25     25.150836   17.685329   21.749134 C.3        1 MOL1         0.2972
      86    H41     25.833005   16.827059   21.793147 H          1 MOL1         0.0751
      87    O21     23.778625   17.272698   21.588243 O.3        1 MOL1        -0.3740
      88    C26     25.269411   18.520582   23.047303 C.3        1 MOL1         0.1003
      89    H42     26.302135   18.887721   23.108913 H          1 MOL1         0.0783
      90    O22     24.981104   17.727414   24.206897 O.3        1 MOL1        -0.5519
      91    H43     24.895699   18.380480   24.937625 H          1 MOL1         0.3769
      92    C27     24.330910   19.746789   22.997673 C.3        1 MOL1         0.1053
      93    H44     23.296448   19.382609   23.029587 H          1 MOL1         0.0783
      94    O23     24.587621   20.593589   24.124571 O.3        1 MOL1        -0.5519
      95    H45     24.147600   21.458361   23.933871 H          1 MOL1         0.3769
      96    C28     24.518091   20.557621   21.692123 C.3        1 MOL1         0.1018
      97    H46     25.435452   21.154241   21.783748 H          1 MOL1         0.0783
      98    C29     24.589751   19.663436   20.421833 C.3        1 MOL1         0.1043
      99    H47     23.580820   19.285573   20.208362 H          1 MOL1         0.0783
     100    O24     25.491548   18.550295   20.645334 O.3        1 MOL1        -0.3740
     101    C30     25.082957   20.417033   19.166676 C.3        1 MOL1         0.0138
     102    H48     24.361850   21.204599   18.912439 H          1 MOL1         0.0794
     103    H49     25.109799   19.715247   18.322370 H          1 MOL1         0.0794
     104    O25     26.378955   20.983743   19.381512 O.3        1 MOL1        -0.5486
     105    H50     26.964793   20.237062   19.638106 H          1 MOL1         0.3769
     106    C31     21.359482   13.992948   20.833922 C.3        1 MOL1         0.2972
     107    H51     20.944791   13.019674   20.541823 H          1 MOL1         0.0751
     108    O26     20.314411   14.952815   21.086008 O.3        1 MOL1        -0.3740
     109    C32     22.265010   13.856158   22.089836 C.3        1 MOL1         0.1003
     110    H52     23.083889   13.175844   21.823446 H          1 MOL1         0.0783
     111    O27     21.536072   13.290066   23.190345 O.3        1 MOL1        -0.5519
     112    H53     20.869565   13.966184   23.469652 H          1 MOL1         0.3769
     113    C33     22.893531   15.224296   22.468260 C.3        1 MOL1         0.1053
     114    H54     22.088139   15.883820   22.820310 H          1 MOL1         0.0783
     115    O28     23.875489   15.060589   23.499432 O.3        1 MOL1        -0.5519
     116    H55     24.173143   15.968883   23.753740 H          1 MOL1         0.3769
     117    C34     23.568137   15.891549   21.241776 C.3        1 MOL1         0.1018
     118    H56     24.511219   15.372642   21.024871 H          1 MOL1         0.0783
     119    C35     22.679700   15.862102   19.971025 C.3        1 MOL1         0.1043
     120    H57     21.849306   16.566076   20.110342 H          1 MOL1         0.0783
     121    O29     22.171026   14.520380   19.764660 O.3        1 MOL1        -0.3740
     122    C36     23.438504   16.274807   18.690479 C.3        1 MOL1         0.0138
     123    H58     23.823574   17.295062   18.812850 H          1 MOL1         0.0794
     124    H59     22.729886   16.289858   17.851673 H          1 MOL1         0.0794
     125    O30     24.513578   15.371408   18.416062 O.3        1 MOL1        -0.5486
     126    H60     24.114903   14.472849   18.401584 H          1 MOL1         0.3769
     127    C1      19.996831   18.962764   18.522255 C.2        1 MOL1        -0.2535
     128    H1      20.060477   20.047226   18.469619 H          1 MOL1         0.0845
     129    H2      20.205331   18.402503   17.612889 H          1 MOL1         0.0845
     130    C2      19.675200   18.339175   19.658034 C.2        1 MOL1        -0.1324
     131    H3      19.613076   17.252957   19.690758 H          1 MOL1         0.0833
     132    C3      19.369350   19.046043   20.958712 C.3        1 MOL1        -0.1813
     133    H4      18.455148   18.624380   21.391641 H          1 MOL1         0.0753
     134    H5      19.169625   20.109748   20.775030 H          1 MOL1         0.0753
     135    C4      20.538770   18.907506   21.957594 C.3        1 MOL1        -0.1855
     136    H6      20.763947   17.846174   22.126326 H          1 MOL1         0.0755
     137    H7      21.436950   19.345846   21.504883 H          1 MOL1         0.0755
     138    C5      20.268832   19.603049   23.313160 C.3        1 MOL1        -0.1855
     139    H8      19.982114   20.647381   23.142522 H          1 MOL1         0.0755
     140    H9      21.199683   19.631063   23.894335 H          1 MOL1         0.0755
     141    C6      19.183388   18.896267   24.165971 C.3        1 MOL1        -0.1958
     142    H10     18.224894   18.864214   23.637298 H          1 MOL1         0.0753
     143    H11     19.480111   17.860559   24.361180 H          1 MOL1         0.0753
     144    C7      18.949106   19.575473   25.510697 C.2        1 MOL1         0.6174
     145    O1      19.571324   19.174636   26.474415 O.co2      1 MOL1        -0.6695
     146    O2      18.163555   20.504782   25.548038 O.co2      1 MOL1        -0.6695
@<TRIPOS>BOND
    1     1     2    1
    2     1     3    1
    3     1     4    1
    4     4     5    1
    5     4     6    1
    6     6     7    1
    7     4     8    1
    8     8     9    1
    9     8    10    1
   10    10    11    1
   11     8    12    1
   12    12    13    1
   13    12    14    1
   14    14    15    1
   15     1    16    1
   16    14    16    1
   17    14    17    1
   18    17    18    1
   19    17    19    1
   20    17    20    1
   21    20    21    1
   22    22    23    1
   23    22    24    1
   24    22    25    1
   25    25    26    1
   26    25    27    1
   27    27    28    1
   28    25    29    1
   29    29    30    1
   30    29    31    1
   31    31    32    1
   32     3    33    1
   33    29    33    1
   34    33    34    1
   35    33    35    1
   36    35    36    1
   37    22    37    1
   38    35    37    1
   39    35    38    1
   40    38    39    1
   41    38    40    1
   42    38    41    1
   43    41    42    1
   44    43    44    1
   45    43    45    1
   46    43    46    1
   47    46    47    1
   48    46    48    1
   49    48    49    1
   50    46    50    1
   51    50    51    1
   52    50    52    1
   53    52    53    1
   54    24    54    1
   55    50    54    1
   56    54    55    1
   57    54    56    1
   58    56    57    1
   59    43    58    1
   60    56    58    1
   61    56    59    1
   62    59    60    1
   63    59    61    1
   64    59    62    1
   65    62    63    1
   66    64    65    1
   67    64    66    1
   68    64    67    1
   69    67    68    1
   70    67    69    1
   71    69    70    1
   72    67    71    1
   73    71    72    1
   74    71    73    1
   75    73    74    1
   76    45    75    1
   77    71    75    1
   78    75    76    1
   79    75    77    1
   80    77    78    1
   81    64    79    1
   82    77    79    1
   83    77    80    1
   84    80    81    1
   85    80    82    1
   86    80    83    1
   87    83    84    1
   88    85    86    1
   89    85    87    1
   90    85    88    1
   91    88    89    1
   92    88    90    1
   93    90    91    1
   94    88    92    1
   95    92    93    1
   96    92    94    1
   97    94    95    1
   98    66    96    1
   99    92    96    1
  100    96    97    1
  101    96    98    1
  102    98    99    1
  103    85   100    1
  104    98   100    1
  105    98   101    1
  106   101   102    1
  107   101   103    1
  108   101   104    1
  109   104   105    1
  110   106   107    1
  111    12   108    1
  112   106   108    1
  113   106   109    1
  114   109   110    1
  115   109   111    1
  116   111   112    1
  117   109   113    1
  118   113   114    1
  119   113   115    1
  120   115   116    1
  121    87   117    1
  122   113   117    1
  123   117   118    1
  124   117   119    1
  125   119   120    1
  126   106   121    1
  127   119   121    1
  128   119   122    1
  129   122   123    1
  130   122   124    1
  131   122   125    1
  132   125   126    1
  133   127   128    1
  134   127   129    1
  135   127   130    2
  136   130   131    1
  137   130   132    1
  138   132   133    1
  139   132   134    1
  140   132   135    1
  141   135   136    1
  142   135   137    1
  143   135   138    1
  144   138   139    1
  145   138   140    1
  146   138   141    1
  147   141   142    1
  148   141   143    1
  149   141   144    1
  150   144   145    1
  151   144   146    2
@<TRIPOS>SUBSTRUCTURE
       1 MOL1            1 RESIDUE      1      MOL     
       2 MOL1          146 RESIDUE      1      MOL     
@<SCITEGIC>MOL_PROPERTY
VM2 Rank
SciTegic.value.IntegerValue
6

@<SCITEGIC>MOL_PROPERTY
Conf_Id
SciTegic.value.IntegerValue
26736

@<SCITEGIC>MOL_PROPERTY
Probability
SciTegic.value.DoubleValue
2.34

@<SCITEGIC>MOL_PROPERTY
Sum Probability
SciTegic.value.DoubleValue
21.11

@<SCITEGIC>MOL_PROPERTY
Delta G
SciTegic.value.DoubleValue
0.577

@<SCITEGIC>MOL_PROPERTY
G
SciTegic.value.DoubleValue
492.638

@<SCITEGIC>MOL_PROPERTY
E
SciTegic.value.DoubleValue
304.682

@<SCITEGIC>MOL_PROPERTY
-TS
SciTegic.value.DoubleValue
187.956

@<SCITEGIC>MOL_PROPERTY
U+W
SciTegic.value.DoubleValue
175.911

@<SCITEGIC>MOL_PROPERTY
U
SciTegic.value.DoubleValue
247.589

@<SCITEGIC>MOL_PROPERTY
W
SciTegic.value.DoubleValue
-71.678

@<SCITEGIC>MOL_PROPERTY
W(PB)
SciTegic.value.DoubleValue
-77.823

@<SCITEGIC>MOL_PROPERTY
W(SA)
SciTegic.value.DoubleValue
6.144

@<SCITEGIC>MOL_PROPERTY
Valence
SciTegic.value.DoubleValue
151.668

@<SCITEGIC>MOL_PROPERTY
Coulomb
SciTegic.value.DoubleValue
121.059

@<SCITEGIC>MOL_PROPERTY
VdW
SciTegic.value.DoubleValue
-25.137

@<SCITEGIC>MOL_PROPERTY
VdW6
SciTegic.value.DoubleValue
-182.081

@<SCITEGIC>MOL_PROPERTY
VdW12
SciTegic.value.DoubleValue
156.944

@<SCITEGIC>MOL_PROPERTY
Bond
SciTegic.value.DoubleValue
4.614

@<SCITEGIC>MOL_PROPERTY
Angle
SciTegic.value.DoubleValue
11.758

@<SCITEGIC>MOL_PROPERTY
Pdih
SciTegic.value.DoubleValue
135.295

@<SCITEGIC>MOL_PROPERTY
Idih
SciTegic.value.DoubleValue
0.001

@<SCITEGIC>MOL_PROPERTY
Tether
SciTegic.value.DoubleValue
0.000

@<TRIPOS>MOLECULE
CD_guest-s22_vm2_rndm.mol2 : vm2 host+ligand conformer 7
         146         151           2
SMALL
USER_CHARGES
 
@<TRIPOS>ATOM
       1    C1      16.199831   15.307421   21.703894 C.3        1 MOL1         0.2972
       2    H1      15.124472   15.170564   21.874166 H          1 MOL1         0.0751
       3    O1      16.492638   16.606542   21.150008 O.3        1 MOL1        -0.3740
       4    C2      16.979843   15.133673   23.030116 C.3        1 MOL1         0.1003
       5    H2      16.814137   14.103885   23.372659 H          1 MOL1         0.0783
       6    O2      16.520612   16.040934   24.041050 O.3        1 MOL1        -0.5519
       7    H3      17.209702   15.995257   24.741554 H          1 MOL1         0.3769
       8    C3      18.496797   15.315275   22.801600 C.3        1 MOL1         0.1053
       9    H4      18.683788   16.363933   22.533419 H          1 MOL1         0.0783
      10    O3      19.196067   14.981484   24.006417 O.3        1 MOL1        -0.5519
      11    H5      20.092935   14.672649   23.733358 H          1 MOL1         0.3769
      12    C4      19.009286   14.424043   21.643515 C.3        1 MOL1         0.1018
      13    H6      19.102949   13.394128   22.013835 H          1 MOL1         0.0783
      14    C5      18.083455   14.458020   20.391874 C.3        1 MOL1         0.1043
      15    H7      18.214152   15.429320   19.898780 H          1 MOL1         0.0783
      16    O4      16.695422   14.311871   20.785077 O.3        1 MOL1        -0.3740
      17    C6      18.407644   13.369135   19.341113 C.3        1 MOL1         0.0138
      18    H8      19.352910   13.631403   18.847031 H          1 MOL1         0.0794
      19    H9      17.624224   13.383193   18.571479 H          1 MOL1         0.0794
      20    O5      18.508520   12.064152   19.925178 O.3        1 MOL1        -0.5486
      21    H10     18.625622   11.418774   19.194210 H          1 MOL1         0.3769
      22    C7      14.759467   20.256214   20.377585 C.3        1 MOL1         0.2972
      23    H11     14.161356   21.119621   20.059002 H          1 MOL1         0.0751
      24    O6      16.078083   20.655083   20.808921 O.3        1 MOL1        -0.3740
      25    C8      14.050836   19.469382   21.511538 C.3        1 MOL1         0.1003
      26    H12     13.123880   19.059191   21.090851 H          1 MOL1         0.0783
      27    O7      13.712551   20.334039   22.606532 O.3        1 MOL1        -0.5519
      28    H13     14.562772   20.581375   23.047820 H          1 MOL1         0.3769
      29    C9      14.934115   18.275329   21.963277 C.3        1 MOL1         0.1053
      30    H14     15.842653   18.681625   22.429238 H          1 MOL1         0.0783
      31    O8      14.230388   17.464063   22.911286 O.3        1 MOL1        -0.5519
      32    H15     14.924753   16.967202   23.409719 H          1 MOL1         0.3769
      33    C10     15.361429   17.402304   20.748012 C.3        1 MOL1         0.1018
      34    H16     14.518540   16.770909   20.437053 H          1 MOL1         0.0783
      35    C11     15.833653   18.236225   19.523840 C.3        1 MOL1         0.1043
      36    H17     16.836785   18.627359   19.733072 H          1 MOL1         0.0783
      37    O9      14.923898   19.337836   19.278160 O.3        1 MOL1        -0.3740
      38    C12     15.926918   17.400909   18.228176 C.3        1 MOL1         0.0138
      39    H18     16.622439   16.566650   18.389460 H          1 MOL1         0.0794
      40    H19     16.347500   18.030984   17.433106 H          1 MOL1         0.0794
      41    O10     14.641473   16.905364   17.841691 O.3        1 MOL1        -0.5486
      42    H20     14.050119   17.689779   17.800350 H          1 MOL1         0.3769
      43    C13     18.403659   23.815603   22.027168 C.3        1 MOL1         0.2972
      44    H21     18.825701   24.766771   22.375008 H          1 MOL1         0.0751
      45    O11     19.426167   22.936393   21.510236 O.3        1 MOL1        -0.3740
      46    C14     17.676880   23.097758   23.191233 C.3        1 MOL1         0.1003
      47    H22     16.856307   23.748965   23.518910 H          1 MOL1         0.0783
      48    O12     18.589991   22.907516   24.285821 O.3        1 MOL1        -0.5519
      49    H23     18.295831   22.112483   24.801319 H          1 MOL1         0.3769
      50    C15     17.053732   21.762060   22.705684 C.3        1 MOL1         0.1053
      51    H24     17.868623   21.063939   22.478543 H          1 MOL1         0.0783
      52    O13     16.211918   21.214356   23.728319 O.3        1 MOL1        -0.5519
      53    H25     16.809055   20.888656   24.451235 H          1 MOL1         0.3769
      54    C16     16.212942   21.955282   21.413468 C.3        1 MOL1         0.1018
      55    H26     15.239706   22.383232   21.687924 H          1 MOL1         0.0783
      56    C17     16.905790   22.859015   20.355929 C.3        1 MOL1         0.1043
      57    H27     17.724050   22.285658   19.901379 H          1 MOL1         0.0783
      58    O14     17.436252   24.050066   20.984058 O.3        1 MOL1        -0.3740
      59    C18     15.965214   23.306328   19.214865 C.3        1 MOL1         0.0138
      60    H28     15.642938   22.422107   18.649183 H          1 MOL1         0.0794
      61    H29     16.529686   23.947247   18.524281 H          1 MOL1         0.0794
      62    O15     14.827567   24.007586   19.725223 O.3        1 MOL1        -0.5486
      63    H30     15.181465   24.761788   20.247283 H          1 MOL1         0.3769
      64    C19     23.581605   22.774860   21.211343 C.3        1 MOL1         0.2972
      65    H31     24.638964   22.992753   21.014069 H          1 MOL1         0.0751
      66    O16     23.375387   21.393737   21.562327 O.3        1 MOL1        -0.3740
      67    C20     23.048670   23.652364   22.372405 C.3        1 MOL1         0.1003
      68    H32     23.163116   24.702092   22.072383 H          1 MOL1         0.0783
      69    O17     23.785306   23.421819   23.581598 O.3        1 MOL1        -0.5519
      70    H33     23.280142   23.905624   24.273452 H          1 MOL1         0.3769
      71    C21     21.544605   23.386231   22.619454 C.3        1 MOL1         0.1053
      72    H34     21.441742   22.355767   22.984239 H          1 MOL1         0.0783
      73    O18     21.063487   24.298218   23.614029 O.3        1 MOL1        -0.5519
      74    H35     20.223417   23.902991   23.957651 H          1 MOL1         0.3769
      75    C22     20.728267   23.517105   21.303117 C.3        1 MOL1         0.1018
      76    H36     20.651942   24.574238   21.016123 H          1 MOL1         0.0783
      77    C23     21.381472   22.725279   20.137993 C.3        1 MOL1         0.1043
      78    H37     21.264939   21.650917   20.336555 H          1 MOL1         0.0783
      79    O19     22.787681   23.061637   20.041490 O.3        1 MOL1        -0.3740
      80    C24     20.739418   23.027509   18.765690 C.3        1 MOL1         0.0138
      81    H38     19.675371   22.761366   18.799522 H          1 MOL1         0.0794
      82    H39     21.213749   22.390039   18.007737 H          1 MOL1         0.0794
      83    O20     20.892269   24.406698   18.417613 O.3        1 MOL1        -0.5486
      84    H40     21.853147   24.600009   18.493745 H          1 MOL1         0.3769
      85    C25     25.176679   17.698390   21.691852 C.3        1 MOL1         0.2972
      86    H41     25.851283   16.833463   21.719436 H          1 MOL1         0.0751
      87    O21     23.798037   17.300804   21.552940 O.3        1 MOL1        -0.3740
      88    C26     25.326429   18.529838   22.989357 C.3        1 MOL1         0.1003
      89    H42     26.360924   18.895168   23.027997 H          1 MOL1         0.0783
      90    O22     25.063794   17.736024   24.154370 O.3        1 MOL1        -0.5519
      91    H43     24.997515   18.388784   24.887457 H          1 MOL1         0.3769
      92    C27     24.389320   19.757801   22.963080 C.3        1 MOL1         0.1053
      93    H44     23.354225   19.396712   23.015475 H          1 MOL1         0.0783
      94    O23     24.671176   20.599851   24.087530 O.3        1 MOL1        -0.5519
      95    H45     24.217657   21.461804   23.915924 H          1 MOL1         0.3769
      96    C28     24.552285   20.572155   21.656296 C.3        1 MOL1         0.1018
      97    H46     25.469402   21.171115   21.733768 H          1 MOL1         0.0783
      98    C29     24.604203   19.683825   20.380708 C.3        1 MOL1         0.1043
      99    H47     23.590884   19.311672   20.178355 H          1 MOL1         0.0783
     100    O24     25.504036   18.565139   20.585467 O.3        1 MOL1        -0.3740
     101    C30     25.083053   20.443075   19.123493 C.3        1 MOL1         0.0138
     102    H48     24.363772   21.237748   18.886639 H          1 MOL1         0.0794
     103    H49     25.091508   19.747322   18.273814 H          1 MOL1         0.0794
     104    O25     26.386336   20.998894   19.322158 O.3        1 MOL1        -0.5486
     105    H50     26.970351   20.246319   19.565375 H          1 MOL1         0.3769
     106    C31     21.321857   14.025033   20.948585 C.3        1 MOL1         0.2972
     107    H51     20.903783   13.045117   20.686028 H          1 MOL1         0.0751
     108    O26     20.284100   14.974561   21.259420 O.3        1 MOL1        -0.3740
     109    C32     22.288699   13.906046   22.157452 C.3        1 MOL1         0.1003
     110    H52     23.089551   13.214233   21.865631 H          1 MOL1         0.0783
     111    O27     21.627416   13.393855   23.321712 O.3        1 MOL1        -0.5519
     112    H53     22.299353   13.456427   24.037552 H          1 MOL1         0.3769
     113    C33     22.938375   15.269833   22.489082 C.3        1 MOL1         0.1053
     114    H54     22.152923   15.939663   22.865747 H          1 MOL1         0.0783
     115    O28     23.944320   15.086986   23.492933 O.3        1 MOL1        -0.5519
     116    H55     24.273499   15.989796   23.730568 H          1 MOL1         0.3769
     117    C34     23.562336   15.919098   21.228726 C.3        1 MOL1         0.1018
     118    H56     24.488511   15.391280   20.965455 H          1 MOL1         0.0783
     119    C35     22.601719   15.890639   20.011283 C.3        1 MOL1         0.1043
     120    H57     21.783582   16.596639   20.199036 H          1 MOL1         0.0783
     121    O29     22.073692   14.551991   19.835334 O.3        1 MOL1        -0.3740
     122    C36     23.286574   16.301415   18.689342 C.3        1 MOL1         0.0138
     123    H58     23.684322   17.319262   18.791056 H          1 MOL1         0.0794
     124    H59     22.530283   16.322313   17.893372 H          1 MOL1         0.0794
     125    O30     24.338360   15.392028   18.351958 O.3        1 MOL1        -0.5486
     126    H60     23.934289   14.495839   18.360950 H          1 MOL1         0.3769
     127    C1      20.056474   18.979304   18.526879 C.2        1 MOL1        -0.2535
     128    H1      20.151440   20.062469   18.502873 H          1 MOL1         0.0845
     129    H2      20.264060   18.436278   17.606919 H          1 MOL1         0.0845
     130    C2      19.699058   18.337087   19.641375 C.2        1 MOL1        -0.1324
     131    H3      19.606595   17.252705   19.645564 H          1 MOL1         0.0833
     132    C3      19.392152   19.019700   20.954692 C.3        1 MOL1        -0.1813
     133    H4      18.471235   18.598585   21.374155 H          1 MOL1         0.0753
     134    H5      19.204722   20.088791   20.790351 H          1 MOL1         0.0753
     135    C4      20.553427   18.849964   21.958129 C.3        1 MOL1        -0.1855
     136    H6      20.756551   17.783031   22.117006 H          1 MOL1         0.0755
     137    H7      21.462267   19.277686   21.515918 H          1 MOL1         0.0755
     138    C5      20.287936   19.534663   23.319710 C.3        1 MOL1        -0.1855
     139    H8      20.011502   20.583722   23.158514 H          1 MOL1         0.0755
     140    H9      21.218671   19.547714   23.901962 H          1 MOL1         0.0755
     141    C6      19.194165   18.829276   24.163705 C.3        1 MOL1        -0.1958
     142    H10     18.239853   18.800737   23.626974 H          1 MOL1         0.0753
     143    H11     19.486119   17.791764   24.361807 H          1 MOL1         0.0753
     144    C7      18.951190   19.510977   25.505702 C.2        1 MOL1         0.6174
     145    O1      19.571298   19.116889   26.473438 O.co2      1 MOL1        -0.6695
     146    O2      18.158258   20.434061   25.537406 O.co2      1 MOL1        -0.6695
@<TRIPOS>BOND
    1     1     2    1
    2     1     3    1
    3     1     4    1
    4     4     5    1
    5     4     6    1
    6     6     7    1
    7     4     8    1
    8     8     9    1
    9     8    10    1
   10    10    11    1
   11     8    12    1
   12    12    13    1
   13    12    14    1
   14    14    15    1
   15     1    16    1
   16    14    16    1
   17    14    17    1
   18    17    18    1
   19    17    19    1
   20    17    20    1
   21    20    21    1
   22    22    23    1
   23    22    24    1
   24    22    25    1
   25    25    26    1
   26    25    27    1
   27    27    28    1
   28    25    29    1
   29    29    30    1
   30    29    31    1
   31    31    32    1
   32     3    33    1
   33    29    33    1
   34    33    34    1
   35    33    35    1
   36    35    36    1
   37    22    37    1
   38    35    37    1
   39    35    38    1
   40    38    39    1
   41    38    40    1
   42    38    41    1
   43    41    42    1
   44    43    44    1
   45    43    45    1
   46    43    46    1
   47    46    47    1
   48    46    48    1
   49    48    49    1
   50    46    50    1
   51    50    51    1
   52    50    52    1
   53    52    53    1
   54    24    54    1
   55    50    54    1
   56    54    55    1
   57    54    56    1
   58    56    57    1
   59    43    58    1
   60    56    58    1
   61    56    59    1
   62    59    60    1
   63    59    61    1
   64    59    62    1
   65    62    63    1
   66    64    65    1
   67    64    66    1
   68    64    67    1
   69    67    68    1
   70    67    69    1
   71    69    70    1
   72    67    71    1
   73    71    72    1
   74    71    73    1
   75    73    74    1
   76    45    75    1
   77    71    75    1
   78    75    76    1
   79    75    77    1
   80    77    78    1
   81    64    79    1
   82    77    79    1
   83    77    80    1
   84    80    81    1
   85    80    82    1
   86    80    83    1
   87    83    84    1
   88    85    86    1
   89    85    87    1
   90    85    88    1
   91    88    89    1
   92    88    90    1
   93    90    91    1
   94    88    92    1
   95    92    93    1
   96    92    94    1
   97    94    95    1
   98    66    96    1
   99    92    96    1
  100    96    97    1
  101    96    98    1
  102    98    99    1
  103    85   100    1
  104    98   100    1
  105    98   101    1
  106   101   102    1
  107   101   103    1
  108   101   104    1
  109   104   105    1
  110   106   107    1
  111    12   108    1
  112   106   108    1
  113   106   109    1
  114   109   110    1
  115   109   111    1
  116   111   112    1
  117   109   113    1
  118   113   114    1
  119   113   115    1
  120   115   116    1
  121    87   117    1
  122   113   117    1
  123   117   118    1
  124   117   119    1
  125   119   120    1
  126   106   121    1
  127   119   121    1
  128   119   122    1
  129   122   123    1
  130   122   124    1
  131   122   125    1
  132   125   126    1
  133   127   128    1
  134   127   129    1
  135   127   130    2
  136   130   131    1
  137   130   132    1
  138   132   133    1
  139   132   134    1
  140   132   135    1
  141   135   136    1
  142   135   137    1
  143   135   138    1
  144   138   139    1
  145   138   140    1
  146   138   141    1
  147   141   142    1
  148   141   143    1
  149   141   144    1
  150   144   145    1
  151   144   146    2
@<TRIPOS>SUBSTRUCTURE
       1 MOL1            1 RESIDUE      1      MOL     
       2 MOL1          146 RESIDUE      1      MOL     
@<SCITEGIC>MOL_PROPERTY
VM2 Rank
SciTegic.value.IntegerValue
7

@<SCITEGIC>MOL_PROPERTY
Conf_Id
SciTegic.value.IntegerValue
26345

@<SCITEGIC>MOL_PROPERTY
Probability
SciTegic.value.DoubleValue
2.30

@<SCITEGIC>MOL_PROPERTY
Sum Probability
SciTegic.value.DoubleValue
23.41

@<SCITEGIC>MOL_PROPERTY
Delta G
SciTegic.value.DoubleValue
0.587

@<SCITEGIC>MOL_PROPERTY
G
SciTegic.value.DoubleValue
492.648

@<SCITEGIC>MOL_PROPERTY
E
SciTegic.value.DoubleValue
305.126

@<SCITEGIC>MOL_PROPERTY
-TS
SciTegic.value.DoubleValue
187.522

@<SCITEGIC>MOL_PROPERTY
U+W
SciTegic.value.DoubleValue
176.355

@<SCITEGIC>MOL_PROPERTY
U
SciTegic.value.DoubleValue
250.925

@<SCITEGIC>MOL_PROPERTY
W
SciTegic.value.DoubleValue
-74.570

@<SCITEGIC>MOL_PROPERTY
W(PB)
SciTegic.value.DoubleValue
-80.732

@<SCITEGIC>MOL_PROPERTY
W(SA)
SciTegic.value.DoubleValue
6.162

@<SCITEGIC>MOL_PROPERTY
Valence
SciTegic.value.DoubleValue
150.935

@<SCITEGIC>MOL_PROPERTY
Coulomb
SciTegic.value.DoubleValue
125.155

@<SCITEGIC>MOL_PROPERTY
VdW
SciTegic.value.DoubleValue
-25.165

@<SCITEGIC>MOL_PROPERTY
VdW6
SciTegic.value.DoubleValue
-180.718

@<SCITEGIC>MOL_PROPERTY
VdW12
SciTegic.value.DoubleValue
155.553

@<SCITEGIC>MOL_PROPERTY
Bond
SciTegic.value.DoubleValue
4.557

@<SCITEGIC>MOL_PROPERTY
Angle
SciTegic.value.DoubleValue
11.794

@<SCITEGIC>MOL_PROPERTY
Pdih
SciTegic.value.DoubleValue
134.583

@<SCITEGIC>MOL_PROPERTY
Idih
SciTegic.value.DoubleValue
0.001

@<SCITEGIC>MOL_PROPERTY
Tether
SciTegic.value.DoubleValue
0.000

@<TRIPOS>MOLECULE
CD_guest-s22_vm2_rndm.mol2 : vm2 host+ligand conformer 8
         146         151           2
SMALL
USER_CHARGES
 
@<TRIPOS>ATOM
       1    C1      16.205994   15.311566   21.703608 C.3        1 MOL1         0.2972
       2    H1      15.131433   15.173280   21.877817 H          1 MOL1         0.0751
       3    O1      16.494902   16.609111   21.144374 O.3        1 MOL1        -0.3740
       4    C2      16.991628   15.143766   23.027535 C.3        1 MOL1         0.1003
       5    H2      16.827379   14.115465   23.375079 H          1 MOL1         0.0783
       6    O2      16.535979   16.054147   24.037077 O.3        1 MOL1        -0.5519
       7    H3      17.227048   16.010379   24.735722 H          1 MOL1         0.3769
       8    C3      18.508143   15.324413   22.793147 C.3        1 MOL1         0.1053
       9    H4      18.694964   16.373120   22.525064 H          1 MOL1         0.0783
      10    O3      19.210356   14.989040   23.995576 O.3        1 MOL1        -0.5519
      11    H5      20.106053   14.678839   23.720429 H          1 MOL1         0.3769
      12    C4      19.016517   14.433189   21.632793 C.3        1 MOL1         0.1018
      13    H6      19.111054   13.402669   22.001225 H          1 MOL1         0.0783
      14    C5      18.085864   14.469651   20.384896 C.3        1 MOL1         0.1043
      15    H7      18.214519   15.439326   19.887717 H          1 MOL1         0.0783
      16    O4      16.701663   14.313126   20.786677 O.3        1 MOL1        -0.3740
      17    C6      18.397614   13.372385   19.342916 C.3        1 MOL1         0.0138
      18    H8      19.394306   13.552571   18.919092 H          1 MOL1         0.0794
      19    H9      17.675387   13.453514   18.519463 H          1 MOL1         0.0794
      20    O5      18.337437   12.068692   19.928685 O.3        1 MOL1        -0.5486
      21    H10     17.433324   11.976730   20.303681 H          1 MOL1         0.3769
      22    C7      14.758429   20.260789   20.388843 C.3        1 MOL1         0.2972
      23    H11     14.160190   21.125477   20.074371 H          1 MOL1         0.0751
      24    O6      16.077223   20.657291   20.820595 O.3        1 MOL1        -0.3740
      25    C8      14.052163   19.470149   21.521620 C.3        1 MOL1         0.1003
      26    H12     13.123987   19.061773   21.101887 H          1 MOL1         0.0783
      27    O7      13.717393   20.330900   22.620813 O.3        1 MOL1        -0.5519
      28    H13     14.569658   20.584114   23.054833 H          1 MOL1         0.3769
      29    C9      14.936233   18.274337   21.967286 C.3        1 MOL1         0.1053
      30    H14     15.845425   18.679100   22.433348 H          1 MOL1         0.0783
      31    O8      14.233993   17.459770   22.913570 O.3        1 MOL1        -0.5519
      32    H15     14.929817   16.966308   23.413291 H          1 MOL1         0.3769
      33    C10     15.361920   17.405533   20.748300 C.3        1 MOL1         0.1018
      34    H16     14.518992   16.774417   20.436932 H          1 MOL1         0.0783
      35    C11     15.831280   18.244027   19.526072 C.3        1 MOL1         0.1043
      36    H17     16.834628   18.634933   19.734763 H          1 MOL1         0.0783
      37    O9      14.920746   19.346128   19.285937 O.3        1 MOL1        -0.3740
      38    C12     15.922651   17.413435   18.227247 C.3        1 MOL1         0.0138
      39    H18     16.619999   16.579828   18.383840 H          1 MOL1         0.0794
      40    H19     16.340214   18.047013   17.433372 H          1 MOL1         0.0794
      41    O10     14.637093   16.917068   17.842201 O.3        1 MOL1        -0.5486
      42    H20     14.044392   17.700655   17.804809 H          1 MOL1         0.3769
      43    C13     18.407542   23.818578   22.024932 C.3        1 MOL1         0.2972
      44    H21     18.830631   24.770482   22.369405 H          1 MOL1         0.0751
      45    O11     19.429693   22.936099   21.512386 O.3        1 MOL1        -0.3740
      46    C14     17.679274   23.106714   23.191626 C.3        1 MOL1         0.1003
      47    H22     16.858375   23.759667   23.515105 H          1 MOL1         0.0783
      48    O12     18.591646   22.920878   24.287853 O.3        1 MOL1        -0.5519
      49    H23     18.301096   22.123828   24.802273 H          1 MOL1         0.3769
      50    C15     17.056760   21.769248   22.711016 C.3        1 MOL1         0.1053
      51    H24     17.871919   21.071939   22.482603 H          1 MOL1         0.0783
      52    O13     16.218531   21.221255   23.736780 O.3        1 MOL1        -0.5519
      53    H25     16.818248   20.896538   24.457924 H          1 MOL1         0.3769
      54    C16     16.212824   21.959644   21.420908 C.3        1 MOL1         0.1018
      55    H26     15.241057   22.388708   21.698701 H          1 MOL1         0.0783
      56    C17     16.902104   22.860767   20.358721 C.3        1 MOL1         0.1043
      57    H27     17.721549   22.284930   19.909845 H          1 MOL1         0.0783
      58    O14     17.442512   24.051084   20.980087 O.3        1 MOL1        -0.3740
      59    C18     15.965445   23.291582   19.204508 C.3        1 MOL1         0.0138
      60    H28     15.761800   22.413899   18.576265 H          1 MOL1         0.0794
      61    H29     16.495422   24.023171   18.579833 H          1 MOL1         0.0794
      62    O15     14.732041   23.844057   19.682012 O.3        1 MOL1        -0.5486
      63    H30     14.229100   24.167630   18.902995 H          1 MOL1         0.3769
      64    C19     23.584751   22.772494   21.209239 C.3        1 MOL1         0.2972
      65    H31     24.641906   22.989710   21.010067 H          1 MOL1         0.0751
      66    O16     23.378962   21.392287   21.563846 O.3        1 MOL1        -0.3740
      67    C20     23.053217   23.652992   22.368711 C.3        1 MOL1         0.1003
      68    H32     23.167909   24.701956   22.066120 H          1 MOL1         0.0783
      69    O17     23.790752   23.424888   23.577831 O.3        1 MOL1        -0.5519
      70    H33     23.286802   23.911110   24.268874 H          1 MOL1         0.3769
      71    C21     21.549251   23.388178   22.617803 C.3        1 MOL1         0.1053
      72    H34     21.446356   22.358769   22.985511 H          1 MOL1         0.0783
      73    O18     21.069318   24.303048   23.610315 O.3        1 MOL1        -0.5519
      74    H35     20.228343   23.910207   23.954474 H          1 MOL1         0.3769
      75    C22     20.731689   23.515742   21.301931 C.3        1 MOL1         0.1018
      76    H36     20.655430   24.572097   21.012038 H          1 MOL1         0.0783
      77    C23     21.383322   22.720511   20.138315 C.3        1 MOL1         0.1043
      78    H37     21.266483   21.646722   20.339762 H          1 MOL1         0.0783
      79    O19     22.789588   23.056114   20.039448 O.3        1 MOL1        -0.3740
      80    C24     20.739854   23.019613   18.766003 C.3        1 MOL1         0.0138
      81    H38     19.675174   22.756217   18.802427 H          1 MOL1         0.0794
      82    H39     21.211502   22.378440   18.009499 H          1 MOL1         0.0794
      83    O20     20.895592   24.397251   18.413081 O.3        1 MOL1        -0.5486
      84    H40     21.856941   24.588644   18.488238 H          1 MOL1         0.3769
      85    C25     25.181890   17.699023   21.702229 C.3        1 MOL1         0.2972
      86    H41     25.855953   16.833791   21.733377 H          1 MOL1         0.0751
      87    O21     23.803922   17.302166   21.554628 O.3        1 MOL1        -0.3740
      88    C26     25.323896   18.529547   23.001137 C.3        1 MOL1         0.1003
      89    H42     26.358082   18.895006   23.046257 H          1 MOL1         0.0783
      90    O22     25.054289   17.734738   24.163897 O.3        1 MOL1        -0.5519
      91    H43     24.983020   18.386904   24.897041 H          1 MOL1         0.3769
      92    C27     24.386668   19.757301   22.969943 C.3        1 MOL1         0.1053
      93    H44     23.351514   19.395684   23.015992 H          1 MOL1         0.0783
      94    O23     24.661454   20.598946   24.096433 O.3        1 MOL1        -0.5519
      95    H45     24.211352   21.461862   23.920902 H          1 MOL1         0.3769
      96    C28     24.556621   20.572573   21.664613 C.3        1 MOL1         0.1018
      97    H46     25.472182   21.173092   21.748301 H          1 MOL1         0.0783
      98    C29     24.617732   19.685221   20.388701 C.3        1 MOL1         0.1043
      99    H47     23.605909   19.312938   20.179225 H          1 MOL1         0.0783
     100    O24     25.516383   18.566538   20.598593 O.3        1 MOL1        -0.3740
     101    C30     25.104753   20.445530   19.135255 C.3        1 MOL1         0.0138
     102    H48     24.386245   21.239439   18.893512 H          1 MOL1         0.0794
     103    H49     25.120133   19.750131   18.285382 H          1 MOL1         0.0794
     104    O25     26.405907   21.002831   19.343465 O.3        1 MOL1        -0.5486
     105    H50     26.989233   20.250814   19.590039 H          1 MOL1         0.3769
     106    C31     21.328298   14.029637   20.935140 C.3        1 MOL1         0.2972
     107    H51     20.909072   13.050852   20.669073 H          1 MOL1         0.0751
     108    O26     20.290737   14.980648   21.243723 O.3        1 MOL1        -0.3740
     109    C32     22.291577   13.906707   22.146393 C.3        1 MOL1         0.1003
     110    H52     23.093254   13.215791   21.854669 H          1 MOL1         0.0783
     111    O27     21.626851   13.390498   23.306800 O.3        1 MOL1        -0.5519
     112    H53     22.297073   13.449265   24.024605 H          1 MOL1         0.3769
     113    C33     22.940426   15.269528   22.483706 C.3        1 MOL1         0.1053
     114    H54     22.153807   15.938916   22.858713 H          1 MOL1         0.0783
     115    O28     23.942380   15.084306   23.491085 O.3        1 MOL1        -0.5519
     116    H55     24.269788   15.986652   23.732897 H          1 MOL1         0.3769
     117    C34     23.569513   15.921095   21.227029 C.3        1 MOL1         0.1018
     118    H56     24.496763   15.393782   20.966525 H          1 MOL1         0.0783
     119    C35     22.613943   15.895262   20.005500 C.3        1 MOL1         0.1043
     120    H57     21.796002   16.602289   20.190551 H          1 MOL1         0.0783
     121    O29     22.084735   14.557560   19.825568 O.3        1 MOL1        -0.3740
     122    C36     23.305079   16.306620   18.686992 C.3        1 MOL1         0.0138
     123    H58     23.703866   17.323761   18.791632 H          1 MOL1         0.0794
     124    H59     22.552282   16.329515   17.887768 H          1 MOL1         0.0794
     125    O30     24.357059   15.396184   18.353050 O.3        1 MOL1        -0.5486
     126    H60     23.951653   14.500565   18.358692 H          1 MOL1         0.3769
     127    C1      20.033994   18.984252   18.521300 C.2        1 MOL1        -0.2535
     128    H1      20.113007   20.068610   18.493850 H          1 MOL1         0.0845
     129    H2      20.241455   18.441959   17.600875 H          1 MOL1         0.0845
     130    C2      19.695343   18.339748   19.640315 C.2        1 MOL1        -0.1324
     131    H3      19.618482   17.254217   19.647716 H          1 MOL1         0.0833
     132    C3      19.389999   19.021115   20.954657 C.3        1 MOL1        -0.1813
     133    H4      18.471803   18.596682   21.376693 H          1 MOL1         0.0753
     134    H5      19.198257   20.089586   20.791188 H          1 MOL1         0.0753
     135    C4      20.554662   18.855145   21.954856 C.3        1 MOL1        -0.1855
     136    H6      20.761035   17.788879   22.114038 H          1 MOL1         0.0755
     137    H7      21.461214   19.284731   21.509706 H          1 MOL1         0.0755
     138    C5      20.291284   19.540459   23.316607 C.3        1 MOL1        -0.1855
     139    H8      20.014097   20.589293   23.155306 H          1 MOL1         0.0755
     140    H9      21.222939   19.554347   23.897289 H          1 MOL1         0.0755
     141    C6      19.199328   18.835454   24.163215 C.3        1 MOL1        -0.1958
     142    H10     18.243578   18.807760   23.629001 H          1 MOL1         0.0753
     143    H11     19.491193   17.797727   24.360284 H          1 MOL1         0.0753
     144    C7      18.960323   19.517118   25.505966 C.2        1 MOL1         0.6174
     145    O1      19.578337   19.118523   26.473198 O.co2      1 MOL1        -0.6695
     146    O2      18.172170   20.444235   25.538895 O.co2      1 MOL1        -0.6695
@<TRIPOS>BOND
    1     1     2    1
    2     1     3    1
    3     1     4    1
    4     4     5    1
    5     4     6    1
    6     6     7    1
    7     4     8    1
    8     8     9    1
    9     8    10    1
   10    10    11    1
   11     8    12    1
   12    12    13    1
   13    12    14    1
   14    14    15    1
   15     1    16    1
   16    14    16    1
   17    14    17    1
   18    17    18    1
   19    17    19    1
   20    17    20    1
   21    20    21    1
   22    22    23    1
   23    22    24    1
   24    22    25    1
   25    25    26    1
   26    25    27    1
   27    27    28    1
   28    25    29    1
   29    29    30    1
   30    29    31    1
   31    31    32    1
   32     3    33    1
   33    29    33    1
   34    33    34    1
   35    33    35    1
   36    35    36    1
   37    22    37    1
   38    35    37    1
   39    35    38    1
   40    38    39    1
   41    38    40    1
   42    38    41    1
   43    41    42    1
   44    43    44    1
   45    43    45    1
   46    43    46    1
   47    46    47    1
   48    46    48    1
   49    48    49    1
   50    46    50    1
   51    50    51    1
   52    50    52    1
   53    52    53    1
   54    24    54    1
   55    50    54    1
   56    54    55    1
   57    54    56    1
   58    56    57    1
   59    43    58    1
   60    56    58    1
   61    56    59    1
   62    59    60    1
   63    59    61    1
   64    59    62    1
   65    62    63    1
   66    64    65    1
   67    64    66    1
   68    64    67    1
   69    67    68    1
   70    67    69    1
   71    69    70    1
   72    67    71    1
   73    71    72    1
   74    71    73    1
   75    73    74    1
   76    45    75    1
   77    71    75    1
   78    75    76    1
   79    75    77    1
   80    77    78    1
   81    64    79    1
   82    77    79    1
   83    77    80    1
   84    80    81    1
   85    80    82    1
   86    80    83    1
   87    83    84    1
   88    85    86    1
   89    85    87    1
   90    85    88    1
   91    88    89    1
   92    88    90    1
   93    90    91    1
   94    88    92    1
   95    92    93    1
   96    92    94    1
   97    94    95    1
   98    66    96    1
   99    92    96    1
  100    96    97    1
  101    96    98    1
  102    98    99    1
  103    85   100    1
  104    98   100    1
  105    98   101    1
  106   101   102    1
  107   101   103    1
  108   101   104    1
  109   104   105    1
  110   106   107    1
  111    12   108    1
  112   106   108    1
  113   106   109    1
  114   109   110    1
  115   109   111    1
  116   111   112    1
  117   109   113    1
  118   113   114    1
  119   113   115    1
  120   115   116    1
  121    87   117    1
  122   113   117    1
  123   117   118    1
  124   117   119    1
  125   119   120    1
  126   106   121    1
  127   119   121    1
  128   119   122    1
  129   122   123    1
  130   122   124    1
  131   122   125    1
  132   125   126    1
  133   127   128    1
  134   127   129    1
  135   127   130    2
  136   130   131    1
  137   130   132    1
  138   132   133    1
  139   132   134    1
  140   132   135    1
  141   135   136    1
  142   135   137    1
  143   135   138    1
  144   138   139    1
  145   138   140    1
  146   138   141    1
  147   141   142    1
  148   141   143    1
  149   141   144    1
  150   144   145    1
  151   144   146    2
@<TRIPOS>SUBSTRUCTURE
       1 MOL1            1 RESIDUE      1      MOL     
       2 MOL1          146 RESIDUE      1      MOL     
@<SCITEGIC>MOL_PROPERTY
VM2 Rank
SciTegic.value.IntegerValue
8

@<SCITEGIC>MOL_PROPERTY
Conf_Id
SciTegic.value.IntegerValue
27210

@<SCITEGIC>MOL_PROPERTY
Probability
SciTegic.value.DoubleValue
1.98

@<SCITEGIC>MOL_PROPERTY
Sum Probability
SciTegic.value.DoubleValue
25.39

@<SCITEGIC>MOL_PROPERTY
Delta G
SciTegic.value.DoubleValue
0.677

@<SCITEGIC>MOL_PROPERTY
G
SciTegic.value.DoubleValue
492.738

@<SCITEGIC>MOL_PROPERTY
E
SciTegic.value.DoubleValue
305.190

@<SCITEGIC>MOL_PROPERTY
-TS
SciTegic.value.DoubleValue
187.548

@<SCITEGIC>MOL_PROPERTY
U+W
SciTegic.value.DoubleValue
176.419

@<SCITEGIC>MOL_PROPERTY
U
SciTegic.value.DoubleValue
250.935

@<SCITEGIC>MOL_PROPERTY
W
SciTegic.value.DoubleValue
-74.516

@<SCITEGIC>MOL_PROPERTY
W(PB)
SciTegic.value.DoubleValue
-80.691

@<SCITEGIC>MOL_PROPERTY
W(SA)
SciTegic.value.DoubleValue
6.176

@<SCITEGIC>MOL_PROPERTY
Valence
SciTegic.value.DoubleValue
150.874

@<SCITEGIC>MOL_PROPERTY
Coulomb
SciTegic.value.DoubleValue
125.227

@<SCITEGIC>MOL_PROPERTY
VdW
SciTegic.value.DoubleValue
-25.166

@<SCITEGIC>MOL_PROPERTY
VdW6
SciTegic.value.DoubleValue
-180.756

@<SCITEGIC>MOL_PROPERTY
VdW12
SciTegic.value.DoubleValue
155.590

@<SCITEGIC>MOL_PROPERTY
Bond
SciTegic.value.DoubleValue
4.558

@<SCITEGIC>MOL_PROPERTY
Angle
SciTegic.value.DoubleValue
11.801

@<SCITEGIC>MOL_PROPERTY
Pdih
SciTegic.value.DoubleValue
134.515

@<SCITEGIC>MOL_PROPERTY
Idih
SciTegic.value.DoubleValue
0.001

@<SCITEGIC>MOL_PROPERTY
Tether
SciTegic.value.DoubleValue
0.000

