@<TRIPOS>MOLECULE
CD_guest-s19_vm2_rndm.mol2 : vm2 host+ligand conformer 1
         143         148           2
SMALL
USER_CHARGES
 
@<TRIPOS>ATOM
       1    C1      16.320925   15.274759   20.780312 C.3        1 MOL1         0.2972
       2    H1      15.265916   15.142910   20.507657 H          1 MOL1         0.0751
       3    O1      16.565451   16.579854   21.337707 O.3        1 MOL1        -0.3740
       4    C2      16.751539   14.210241   21.823131 C.3        1 MOL1         0.1003
       5    H2      16.568059   13.224002   21.377337 H          1 MOL1         0.0783
       6    O2      15.992683   14.330313   23.034971 O.3        1 MOL1        -0.5519
       7    H3      16.424858   13.707088   23.661322 H          1 MOL1         0.3769
       8    C3      18.262461   14.313297   22.144757 C.3        1 MOL1         0.1053
       9    H4      18.434556   15.254865   22.685226 H          1 MOL1         0.0783
      10    O3      18.647160   13.201112   22.962188 O.3        1 MOL1        -0.5519
      11    H5      19.607238   13.319825   23.172027 H          1 MOL1         0.3769
      12    C4      19.115623   14.338756   20.851826 C.3        1 MOL1         0.1018
      13    H6      19.119114   13.338413   20.399099 H          1 MOL1         0.0783
      14    C5      18.570258   15.356657   19.817384 C.3        1 MOL1         0.1043
      15    H7      18.729861   16.369418   20.206805 H          1 MOL1         0.0783
      16    O4      17.155570   15.124446   19.612271 O.3        1 MOL1        -0.3740
      17    C6      19.264875   15.256560   18.441386 C.3        1 MOL1         0.0138
      18    H8      20.338448   15.448249   18.564803 H          1 MOL1         0.0794
      19    H9      18.864333   16.041971   17.786785 H          1 MOL1         0.0794
      20    O5      19.057814   13.968305   17.854736 O.3        1 MOL1        -0.5486
      21    H10     18.085169   13.825618   17.850935 H          1 MOL1         0.3769
      22    C7      14.721618   20.259467   21.830173 C.3        1 MOL1         0.2972
      23    H11     14.008940   21.084024   21.956764 H          1 MOL1         0.0751
      24    O6      16.069513   20.739718   21.657272 O.3        1 MOL1        -0.3740
      25    C8      14.673602   19.327552   23.067475 C.3        1 MOL1         0.1003
      26    H12     13.650314   18.936864   23.140799 H          1 MOL1         0.0783
      27    O7      14.990986   20.039685   24.271209 O.3        1 MOL1        -0.5519
      28    H13     15.106596   19.338050   24.950862 H          1 MOL1         0.3769
      29    C9      15.627722   18.123048   22.897866 C.3        1 MOL1         0.1053
      30    H14     16.659798   18.495897   22.934332 H          1 MOL1         0.0783
      31    O8      15.408936   17.185771   23.959407 O.3        1 MOL1        -0.5519
      32    H15     15.807980   16.330902   23.664602 H          1 MOL1         0.3769
      33    C10     15.407966   17.411683   21.540299 C.3        1 MOL1         0.1018
      34    H16     14.486889   16.817572   21.610126 H          1 MOL1         0.0783
      35    C11     15.308739   18.404221   20.346779 C.3        1 MOL1         0.1043
      36    H17     16.306444   18.823509   20.159942 H          1 MOL1         0.0783
      37    O9      14.380915   19.469366   20.671826 O.3        1 MOL1        -0.3740
      38    C12     14.819895   17.752910   19.033659 C.3        1 MOL1         0.0138
      39    H18     15.566574   17.025091   18.691413 H          1 MOL1         0.0794
      40    H19     14.747399   18.530048   18.261082 H          1 MOL1         0.0794
      41    O10     13.552458   17.114241   19.214038 O.3        1 MOL1        -0.5486
      42    H20     12.938664   17.809880   19.539296 H          1 MOL1         0.3769
      43    C13     18.374986   24.132087   21.130996 C.3        1 MOL1         0.2972
      44    H21     18.758747   25.142436   20.942308 H          1 MOL1         0.0751
      45    O11     19.440888   23.171635   21.283836 O.3        1 MOL1        -0.3740
      46    C14     17.514859   24.125111   22.419618 C.3        1 MOL1         0.1003
      47    H22     16.672813   24.810577   22.257728 H          1 MOL1         0.0783
      48    O12     18.271605   24.566571   23.554902 O.3        1 MOL1        -0.5519
      49    H23     17.701924   24.356204   24.328908 H          1 MOL1         0.3769
      50    C15     16.938404   22.716569   22.686970 C.3        1 MOL1         0.1053
      51    H24     17.777079   22.049690   22.923760 H          1 MOL1         0.0783
      52    O13     16.029395   22.770008   23.793309 O.3        1 MOL1        -0.5519
      53    H25     15.734485   21.840237   23.962127 H          1 MOL1         0.3769
      54    C16     16.215850   22.155339   21.437338 C.3        1 MOL1         0.1018
      55    H26     15.247402   22.660285   21.324370 H          1 MOL1         0.0783
      56    C17     17.037188   22.341470   20.132111 C.3        1 MOL1         0.1043
      57    H27     17.882696   21.644019   20.147162 H          1 MOL1         0.0783
      58    O14     17.530035   23.701784   20.042894 O.3        1 MOL1        -0.3740
      59    C18     16.214772   22.055980   18.856503 C.3        1 MOL1         0.0138
      60    H28     15.846529   21.022335   18.889702 H          1 MOL1         0.0794
      61    H29     16.875881   22.142435   17.983950 H          1 MOL1         0.0794
      62    O15     15.117994   22.966816   18.739114 O.3        1 MOL1        -0.5486
      63    H30     15.506540   23.868137   18.797427 H          1 MOL1         0.3769
      64    C19     23.530723   22.637454   20.779056 C.3        1 MOL1         0.2972
      65    H31     24.593549   22.746286   20.527889 H          1 MOL1         0.0751
      66    O16     23.218636   21.278340   21.146614 O.3        1 MOL1        -0.3740
      67    C20     23.131527   23.607185   21.926622 C.3        1 MOL1         0.1003
      68    H32     23.319316   24.625664   21.563540 H          1 MOL1         0.0783
      69    O17     23.934572   23.384898   23.096188 O.3        1 MOL1        -0.5519
      70    H33     23.664689   22.506925   23.464533 H          1 MOL1         0.3769
      71    C21     21.615530   23.495417   22.242970 C.3        1 MOL1         0.1053
      72    H34     21.425006   22.504855   22.680065 H          1 MOL1         0.0783
      73    O18     21.218338   24.523362   23.159525 O.3        1 MOL1        -0.5519
      74    H35     20.246840   24.414181   23.308688 H          1 MOL1         0.3769
      75    C22     20.765805   23.631682   20.953986 C.3        1 MOL1         0.1018
      76    H36     20.770960   24.683817   20.640133 H          1 MOL1         0.0783
      77    C23     21.295445   22.756444   19.787822 C.3        1 MOL1         0.1043
      78    H37     21.092114   21.704333   20.022542 H          1 MOL1         0.0783
      79    O19     22.721420   22.966181   19.630615 O.3        1 MOL1        -0.3740
      80    C24     20.626256   23.077267   18.433084 C.3        1 MOL1         0.0138
      81    H38     19.547412   22.892213   18.511058 H          1 MOL1         0.0794
      82    H39     21.022200   22.389720   17.673846 H          1 MOL1         0.0794
      83    O20     20.868142   24.433989   18.048344 O.3        1 MOL1        -0.5486
      84    H40     21.844106   24.550980   18.064388 H          1 MOL1         0.3769
      85    C25     24.913183   17.697094   22.324454 C.3        1 MOL1         0.2972
      86    H41     25.552453   16.885389   22.694234 H          1 MOL1         0.0751
      87    O21     23.739533   17.187214   21.654978 O.3        1 MOL1        -0.3740
      88    C26     24.476480   18.614942   23.496065 C.3        1 MOL1         0.1003
      89    H42     25.387004   19.056375   23.921375 H          1 MOL1         0.0783
      90    O22     23.817443   17.844461   24.514727 O.3        1 MOL1        -0.5519
      91    H43     23.032412   18.359505   24.839613 H          1 MOL1         0.3769
      92    C27     23.591669   19.777484   22.978081 C.3        1 MOL1         0.1053
      93    H44     22.651878   19.355319   22.607867 H          1 MOL1         0.0783
      94    O23     23.330104   20.706268   24.038406 O.3        1 MOL1        -0.5519
      95    H45     22.673927   20.266259   24.637838 H          1 MOL1         0.3769
      96    C28     24.261535   20.521023   21.794249 C.3        1 MOL1         0.1018
      97    H46     25.054582   21.168472   22.190747 H          1 MOL1         0.0783
      98    C29     24.855480   19.552330   20.732064 C.3        1 MOL1         0.1043
      99    H47     24.023084   19.095981   20.179849 H          1 MOL1         0.0783
     100    O24     25.635550   18.517432   21.381791 O.3        1 MOL1        -0.3740
     101    C30     25.768549   20.249877   19.699150 C.3        1 MOL1         0.0138
     102    H48     25.166962   20.949736   19.104283 H          1 MOL1         0.0794
     103    H49     26.162857   19.491981   19.008981 H          1 MOL1         0.0794
     104    O25     26.842808   20.943530   20.340359 O.3        1 MOL1        -0.5486
     105    H50     27.323330   20.272854   20.875006 H          1 MOL1         0.3769
     106    C31     21.485908   13.781859   21.113957 C.3        1 MOL1         0.2972
     107    H51     21.083910   12.779725   20.919034 H          1 MOL1         0.0751
     108    O26     20.438628   14.768770   21.227664 O.3        1 MOL1        -0.3740
     109    C32     22.313636   13.773984   22.420902 C.3        1 MOL1         0.1003
     110    H52     23.153309   13.082678   22.271390 H          1 MOL1         0.0783
     111    O27     21.529511   13.325425   23.534604 O.3        1 MOL1        -0.5519
     112    H53     22.088827   13.514807   24.321553 H          1 MOL1         0.3769
     113    C33     22.899632   15.173466   22.716185 C.3        1 MOL1         0.1053
     114    H54     22.064839   15.846075   22.959737 H          1 MOL1         0.0783
     115    O28     23.785142   15.069147   23.837067 O.3        1 MOL1        -0.5519
     116    H55     23.879916   15.986961   24.194145 H          1 MOL1         0.3769
     117    C34     23.649460   15.757309   21.485436 C.3        1 MOL1         0.1018
     118    H56     24.643548   15.297731   21.406206 H          1 MOL1         0.0783
     119    C35     22.887245   15.537892   20.148077 C.3        1 MOL1         0.1043
     120    H57     22.050843   16.244441   20.110629 H          1 MOL1         0.0783
     121    O29     22.377875   14.184069   20.054784 O.3        1 MOL1        -0.3740
     122    C36     23.769365   15.795646   18.906797 C.3        1 MOL1         0.0138
     123    H58     24.151508   16.824544   18.945790 H          1 MOL1         0.0794
     124    H59     23.145935   15.708397   18.006925 H          1 MOL1         0.0794
     125    O30     24.856184   14.867226   18.848116 O.3        1 MOL1        -0.5486
     126    H60     24.451663   13.972635   18.903673 H          1 MOL1         0.3769
     127    C1      20.364885   19.653721   25.278051 C.2        1 MOL1         0.6173
     128    O1      19.913871   20.287772   26.211194 O.co2      1 MOL1        -0.6755
     129    O2      21.434618   19.072131   25.326082 O.co2      1 MOL1        -0.6755
     130    C2      19.622505   19.703198   23.990185 C.2        1 MOL1        -0.1504
     131    H1      18.758632   20.360979   23.970571 H          1 MOL1         0.0814
     132    C3      19.979537   19.009199   22.886225 C.2        1 MOL1        -0.1394
     133    H2      20.821214   18.319114   22.910824 H          1 MOL1         0.0817
     134    C4      19.273878   19.141462   21.555988 C.3        1 MOL1        -0.1849
     135    H3      18.877319   20.158323   21.456350 H          1 MOL1         0.0736
     136    H4      18.418396   18.459374   21.519485 H          1 MOL1         0.0736
     137    C5      20.220421   18.841346   20.377479 C.3        1 MOL1        -0.1866
     138    H5      21.117733   19.469668   20.451504 H          1 MOL1         0.0738
     139    H6      20.560039   17.801941   20.447332 H          1 MOL1         0.0738
     140    C6      19.532395   19.072865   19.016821 C.3        1 MOL1        -0.2879
     141    H7      20.208846   18.811375   18.193183 H          1 MOL1         0.0750
     142    H8      18.627252   18.459536   18.923230 H          1 MOL1         0.0750
     143    H9      19.245771   20.124828   18.897658 H          1 MOL1         0.0750
@<TRIPOS>BOND
    1     1     2    1
    2     1     3    1
    3     1     4    1
    4     4     5    1
    5     4     6    1
    6     6     7    1
    7     4     8    1
    8     8     9    1
    9     8    10    1
   10    10    11    1
   11     8    12    1
   12    12    13    1
   13    12    14    1
   14    14    15    1
   15     1    16    1
   16    14    16    1
   17    14    17    1
   18    17    18    1
   19    17    19    1
   20    17    20    1
   21    20    21    1
   22    22    23    1
   23    22    24    1
   24    22    25    1
   25    25    26    1
   26    25    27    1
   27    27    28    1
   28    25    29    1
   29    29    30    1
   30    29    31    1
   31    31    32    1
   32     3    33    1
   33    29    33    1
   34    33    34    1
   35    33    35    1
   36    35    36    1
   37    22    37    1
   38    35    37    1
   39    35    38    1
   40    38    39    1
   41    38    40    1
   42    38    41    1
   43    41    42    1
   44    43    44    1
   45    43    45    1
   46    43    46    1
   47    46    47    1
   48    46    48    1
   49    48    49    1
   50    46    50    1
   51    50    51    1
   52    50    52    1
   53    52    53    1
   54    24    54    1
   55    50    54    1
   56    54    55    1
   57    54    56    1
   58    56    57    1
   59    43    58    1
   60    56    58    1
   61    56    59    1
   62    59    60    1
   63    59    61    1
   64    59    62    1
   65    62    63    1
   66    64    65    1
   67    64    66    1
   68    64    67    1
   69    67    68    1
   70    67    69    1
   71    69    70    1
   72    67    71    1
   73    71    72    1
   74    71    73    1
   75    73    74    1
   76    45    75    1
   77    71    75    1
   78    75    76    1
   79    75    77    1
   80    77    78    1
   81    64    79    1
   82    77    79    1
   83    77    80    1
   84    80    81    1
   85    80    82    1
   86    80    83    1
   87    83    84    1
   88    85    86    1
   89    85    87    1
   90    85    88    1
   91    88    89    1
   92    88    90    1
   93    90    91    1
   94    88    92    1
   95    92    93    1
   96    92    94    1
   97    94    95    1
   98    66    96    1
   99    92    96    1
  100    96    97    1
  101    96    98    1
  102    98    99    1
  103    85   100    1
  104    98   100    1
  105    98   101    1
  106   101   102    1
  107   101   103    1
  108   101   104    1
  109   104   105    1
  110   106   107    1
  111    12   108    1
  112   106   108    1
  113   106   109    1
  114   109   110    1
  115   109   111    1
  116   111   112    1
  117   109   113    1
  118   113   114    1
  119   113   115    1
  120   115   116    1
  121    87   117    1
  122   113   117    1
  123   117   118    1
  124   117   119    1
  125   119   120    1
  126   106   121    1
  127   119   121    1
  128   119   122    1
  129   122   123    1
  130   122   124    1
  131   122   125    1
  132   125   126    1
  133   127   128    1
  134   127   129    2
  135   127   130    1
  136   130   131    1
  137   130   132    2
  138   132   133    1
  139   132   134    1
  140   134   135    1
  141   134   136    1
  142   134   137    1
  143   137   138    1
  144   137   139    1
  145   137   140    1
  146   140   141    1
  147   140   142    1
  148   140   143    1
@<TRIPOS>SUBSTRUCTURE
       1 MOL1            1 RESIDUE      1      MOL     
       2 MOL1          143 RESIDUE      1      MOL     
@<SCITEGIC>MOL_PROPERTY
VM2 Rank
SciTegic.value.IntegerValue
1

@<SCITEGIC>MOL_PROPERTY
Conf_Id
SciTegic.value.IntegerValue
22998

@<SCITEGIC>MOL_PROPERTY
Probability
SciTegic.value.DoubleValue
2.00

@<SCITEGIC>MOL_PROPERTY
Sum Probability
SciTegic.value.DoubleValue
2.00

@<SCITEGIC>MOL_PROPERTY
Delta G
SciTegic.value.DoubleValue
0.000

@<SCITEGIC>MOL_PROPERTY
G
SciTegic.value.DoubleValue
487.834

@<SCITEGIC>MOL_PROPERTY
E
SciTegic.value.DoubleValue
306.153

@<SCITEGIC>MOL_PROPERTY
-TS
SciTegic.value.DoubleValue
181.680

@<SCITEGIC>MOL_PROPERTY
U+W
SciTegic.value.DoubleValue
180.065

@<SCITEGIC>MOL_PROPERTY
U
SciTegic.value.DoubleValue
254.785

@<SCITEGIC>MOL_PROPERTY
W
SciTegic.value.DoubleValue
-74.720

@<SCITEGIC>MOL_PROPERTY
W(PB)
SciTegic.value.DoubleValue
-80.851

@<SCITEGIC>MOL_PROPERTY
W(SA)
SciTegic.value.DoubleValue
6.131

@<SCITEGIC>MOL_PROPERTY
Valence
SciTegic.value.DoubleValue
146.373

@<SCITEGIC>MOL_PROPERTY
Coulomb
SciTegic.value.DoubleValue
130.344

@<SCITEGIC>MOL_PROPERTY
VdW
SciTegic.value.DoubleValue
-21.931

@<SCITEGIC>MOL_PROPERTY
VdW6
SciTegic.value.DoubleValue
-171.513

@<SCITEGIC>MOL_PROPERTY
VdW12
SciTegic.value.DoubleValue
149.582

@<SCITEGIC>MOL_PROPERTY
Bond
SciTegic.value.DoubleValue
4.505

@<SCITEGIC>MOL_PROPERTY
Angle
SciTegic.value.DoubleValue
11.401

@<SCITEGIC>MOL_PROPERTY
Pdih
SciTegic.value.DoubleValue
130.445

@<SCITEGIC>MOL_PROPERTY
Idih
SciTegic.value.DoubleValue
0.022

@<SCITEGIC>MOL_PROPERTY
Tether
SciTegic.value.DoubleValue
0.000

