@<TRIPOS>MOLECULE
CD_guest-s20_vm2_rndm.mol2 : vm2 host+ligand conformer 1
         143         148           2
SMALL
USER_CHARGES
 
@<TRIPOS>ATOM
       1    C1      16.400957   15.307754   20.390806 C.3        1 MOL1         0.2972
       2    H1      15.388284   15.197288   19.981726 H          1 MOL1         0.0751
       3    O1      16.596816   16.609157   20.978405 O.3        1 MOL1        -0.3740
       4    C2      16.669953   14.237253   21.480563 C.3        1 MOL1         0.1003
       5    H2      16.544737   13.252800   21.012067 H          1 MOL1         0.0783
       6    O2      15.715938   14.373821   22.547384 O.3        1 MOL1        -0.5519
       7    H3      15.751153   15.313511   22.856395 H          1 MOL1         0.3769
       8    C3      18.129790   14.330247   22.004838 C.3        1 MOL1         0.1053
       9    H4      18.224580   15.263335   22.576144 H          1 MOL1         0.0783
      10    O3      18.432991   13.213562   22.850483 O.3        1 MOL1        -0.5519
      11    H5      19.291176   13.423908   23.294858 H          1 MOL1         0.3769
      12    C4      19.151966   14.369888   20.836564 C.3        1 MOL1         0.1018
      13    H6      19.243324   13.368028   20.396228 H          1 MOL1         0.0783
      14    C5      18.749777   15.366281   19.719887 C.3        1 MOL1         0.1043
      15    H7      18.872943   16.386118   20.103600 H          1 MOL1         0.0783
      16    O4      17.372359   15.140226   19.339673 O.3        1 MOL1        -0.3740
      17    C6      19.610812   15.228329   18.444581 C.3        1 MOL1         0.0138
      18    H8      20.664391   15.396754   18.700039 H          1 MOL1         0.0794
      19    H9      19.315364   16.012332   17.734667 H          1 MOL1         0.0794
      20    O5      19.449201   13.936061   17.852495 O.3        1 MOL1        -0.5486
      21    H10     18.480938   13.811398   17.736261 H          1 MOL1         0.3769
      22    C7      14.694400   20.256259   21.430242 C.3        1 MOL1         0.2972
      23    H11     13.997823   21.102336   21.492439 H          1 MOL1         0.0751
      24    O6      16.069117   20.695513   21.411504 O.3        1 MOL1        -0.3740
      25    C8      14.487770   19.267478   22.607237 C.3        1 MOL1         0.1003
      26    H12     13.482817   18.839839   22.495955 H          1 MOL1         0.0783
      27    O7      14.563992   19.921035   23.881557 O.3        1 MOL1        -0.5519
      28    H13     15.441157   20.379071   23.924961 H          1 MOL1         0.3769
      29    C9      15.506383   18.105399   22.509357 C.3        1 MOL1         0.1053
      30    H14     16.518744   18.515088   22.633171 H          1 MOL1         0.0783
      31    O8      15.237886   17.147906   23.539412 O.3        1 MOL1        -0.5519
      32    H15     15.106653   17.681495   24.354482 H          1 MOL1         0.3769
      33    C10     15.415399   17.420131   21.122307 C.3        1 MOL1         0.1018
      34    H16     14.502103   16.810497   21.107071 H          1 MOL1         0.0783
      35    C11     15.390373   18.437523   19.942938 C.3        1 MOL1         0.1043
      36    H17     16.396375   18.858748   19.826074 H          1 MOL1         0.0783
      37    O9      14.452204   19.507919   20.219858 O.3        1 MOL1        -0.3740
      38    C12     14.989683   17.806821   18.590398 C.3        1 MOL1         0.0138
      39    H18     15.755944   17.080030   18.290903 H          1 MOL1         0.0794
      40    H19     14.973467   18.594540   17.825369 H          1 MOL1         0.0794
      41    O10     13.710735   17.170918   18.674585 O.3        1 MOL1        -0.5486
      42    H20     13.076705   17.865427   18.961000 H          1 MOL1         0.3769
      43    C13     18.569043   23.949320   21.859276 C.3        1 MOL1         0.2972
      44    H21     19.032675   24.925512   22.047366 H          1 MOL1         0.0751
      45    O11     19.447826   23.075105   21.116221 O.3        1 MOL1        -0.3740
      46    C14     18.183727   23.262993   23.195894 C.3        1 MOL1         0.1003
      47    H22     17.440497   23.902916   23.688605 H          1 MOL1         0.0783
      48    O12     19.332282   23.147249   24.052957 O.3        1 MOL1        -0.5519
      49    H23     19.323630   22.240843   24.460517 H          1 MOL1         0.3769
      50    C15     17.513508   21.890994   22.925782 C.3        1 MOL1         0.1053
      51    H24     18.264511   21.223342   22.489925 H          1 MOL1         0.0783
      52    O13     17.021819   21.337885   24.151295 O.3        1 MOL1        -0.5519
      53    H25     17.818106   20.985444   24.629992 H          1 MOL1         0.3769
      54    C16     16.343011   22.018383   21.915377 C.3        1 MOL1         0.1018
      55    H26     15.476559   22.445570   22.437489 H          1 MOL1         0.0783
      56    C17     16.702506   22.892878   20.681212 C.3        1 MOL1         0.1043
      57    H27     17.383306   22.318117   20.039220 H          1 MOL1         0.0783
      58    O14     17.352583   24.117944   21.100583 O.3        1 MOL1        -0.3740
      59    C18     15.471978   23.277952   19.830044 C.3        1 MOL1         0.0138
      60    H28     15.021079   22.364702   19.419218 H          1 MOL1         0.0794
      61    H29     15.807339   23.887946   18.980595 H          1 MOL1         0.0794
      62    O15     14.509504   23.996014   20.607926 O.3        1 MOL1        -0.5486
      63    H30     14.981664   24.775657   20.976639 H          1 MOL1         0.3769
      64    C19     23.476011   22.612795   20.280790 C.3        1 MOL1         0.2972
      65    H31     24.513110   22.678679   19.927693 H          1 MOL1         0.0751
      66    O16     23.170763   21.282402   20.757460 O.3        1 MOL1        -0.3740
      67    C20     23.194122   23.671520   21.380787 C.3        1 MOL1         0.1003
      68    H32     23.314557   24.656905   20.912783 H          1 MOL1         0.0783
      69    O17     24.133365   23.567052   22.461359 O.3        1 MOL1        -0.5519
      70    H33     23.867608   22.769797   22.983602 H          1 MOL1         0.3769
      71    C21     21.726386   23.565653   21.876040 C.3        1 MOL1         0.1053
      72    H34     21.606547   22.599693   22.385458 H          1 MOL1         0.0783
      73    O18     21.447529   24.633361   22.789143 O.3        1 MOL1        -0.5519
      74    H35     20.760619   24.277900   23.404900 H          1 MOL1         0.3769
      75    C22     20.720344   23.609607   20.687473 C.3        1 MOL1         0.1018
      76    H36     20.613954   24.643970   20.335093 H          1 MOL1         0.0783
      77    C23     21.163669   22.715428   19.495797 C.3        1 MOL1         0.1043
      78    H37     20.987706   21.669882   19.773315 H          1 MOL1         0.0783
      79    O19     22.569919   22.905759   19.197740 O.3        1 MOL1        -0.3740
      80    C24     20.365308   22.995087   18.203636 C.3        1 MOL1         0.0138
      81    H38     19.296911   22.834884   18.400713 H          1 MOL1         0.0794
      82    H39     20.671315   22.270338   17.437428 H          1 MOL1         0.0794
      83    O20     20.588129   24.330483   17.740769 O.3        1 MOL1        -0.5486
      84    H40     21.563391   24.433048   17.668879 H          1 MOL1         0.3769
      85    C25     24.867685   17.851292   22.389608 C.3        1 MOL1         0.2972
      86    H41     25.529000   17.108155   22.852616 H          1 MOL1         0.0751
      87    O21     23.665250   17.245308   21.871563 O.3        1 MOL1        -0.3740
      88    C26     24.482657   18.943054   23.421305 C.3        1 MOL1         0.1003
      89    H42     25.411246   19.438094   23.733355 H          1 MOL1         0.0783
      90    O22     23.866532   18.349971   24.574967 O.3        1 MOL1        -0.5519
      91    H43     23.086055   18.914243   24.820206 H          1 MOL1         0.3769
      92    C27     23.575146   20.019005   22.771814 C.3        1 MOL1         0.1053
      93    H44     22.616092   19.550695   22.512641 H          1 MOL1         0.0783
      94    O23     23.366240   21.093650   23.696788 O.3        1 MOL1        -0.5519
      95    H45     22.660432   20.782020   24.323426 H          1 MOL1         0.3769
      96    C28     24.208605   20.574561   21.469178 C.3        1 MOL1         0.1018
      97    H46     25.043371   21.234802   21.737583 H          1 MOL1         0.0783
      98    C29     24.724410   19.443852   20.535805 C.3        1 MOL1         0.1043
      99    H47     23.856115   18.921676   20.112839 H          1 MOL1         0.0783
     100    O24     25.536570   18.508992   21.291167 O.3        1 MOL1        -0.3740
     101    C30     25.576357   19.963012   19.356270 C.3        1 MOL1         0.0138
     102    H48     24.947948   20.590891   18.710715 H          1 MOL1         0.0794
     103    H49     25.907058   19.105093   18.755680 H          1 MOL1         0.0794
     104    O25     26.705611   20.708295   19.820828 O.3        1 MOL1        -0.5486
     105    H50     27.201613   20.108858   20.421835 H          1 MOL1         0.3769
     106    C31     21.410206   13.824262   21.600080 C.3        1 MOL1         0.2972
     107    H51     20.995201   12.811052   21.526370 H          1 MOL1         0.0751
     108    O26     20.403345   14.832752   21.377516 O.3        1 MOL1        -0.3740
     109    C32     22.035437   14.039584   22.997739 C.3        1 MOL1         0.1003
     110    H52     22.858834   13.320896   23.101391 H          1 MOL1         0.0783
     111    O27     21.076872   13.807903   24.039448 O.3        1 MOL1        -0.5519
     112    H53     21.515415   14.140129   24.854828 H          1 MOL1         0.3769
     113    C33     22.629294   15.461071   23.126247 C.3        1 MOL1         0.1053
     114    H54     21.797065   16.178456   23.121060 H          1 MOL1         0.0783
     115    O28     23.343880   15.545642   24.364108 O.3        1 MOL1        -0.5519
     116    H55     23.551561   16.503000   24.501357 H          1 MOL1         0.3769
     117    C34     23.569108   15.807747   21.938458 C.3        1 MOL1         0.1018
     118    H56     24.548648   15.336846   22.094225 H          1 MOL1         0.0783
     119    C35     23.005643   15.357761   20.561952 C.3        1 MOL1         0.1043
     120    H57     22.211455   16.056603   20.277154 H          1 MOL1         0.0783
     121    O29     22.463385   14.014972   20.633544 O.3        1 MOL1        -0.3740
     122    C36     24.070212   15.379511   19.443383 C.3        1 MOL1         0.0138
     123    H58     24.479088   16.395332   19.357430 H          1 MOL1         0.0794
     124    H59     23.584121   15.136599   18.489038 H          1 MOL1         0.0794
     125    O30     25.119717   14.446458   19.716600 O.3        1 MOL1        -0.5486
     126    H60     24.680031   13.579446   19.864785 H          1 MOL1         0.3769
     127    C1      20.272035   19.607942   24.841263 C.2        1 MOL1         0.6132
     128    O1      21.460387   19.667720   25.093330 O.co2      1 MOL1        -0.6749
     129    O2      19.495825   20.521823   25.047101 O.co2      1 MOL1        -0.6749
     130    C2      19.723525   18.313243   24.248443 C.3        1 MOL1        -0.1955
     131    H1      18.792035   18.086901   24.779537 H          1 MOL1         0.0733
     132    H2      20.414234   17.498930   24.493662 H          1 MOL1         0.0733
     133    C3      19.451054   18.331280   22.750997 C.2        1 MOL1        -0.1395
     134    H3      18.861194   17.490123   22.393523 H          1 MOL1         0.0816
     135    C4      19.833659   19.278960   21.887940 C.2        1 MOL1        -0.1394
     136    H4      20.411549   20.141123   22.217896 H          1 MOL1         0.0816
     137    C5      19.460577   19.278706   20.422738 C.3        1 MOL1        -0.1826
     138    H5      18.590116   18.633465   20.258016 H          1 MOL1         0.0736
     139    H6      19.157080   20.288330   20.118002 H          1 MOL1         0.0736
     140    C6      20.627192   18.790411   19.543748 C.3        1 MOL1        -0.2882
     141    H7      20.909350   17.768982   19.818999 H          1 MOL1         0.0749
     142    H8      20.346745   18.797128   18.483047 H          1 MOL1         0.0749
     143    H9      21.509078   19.428955   19.670705 H          1 MOL1         0.0749
@<TRIPOS>BOND
    1     1     2    1
    2     1     3    1
    3     1     4    1
    4     4     5    1
    5     4     6    1
    6     6     7    1
    7     4     8    1
    8     8     9    1
    9     8    10    1
   10    10    11    1
   11     8    12    1
   12    12    13    1
   13    12    14    1
   14    14    15    1
   15     1    16    1
   16    14    16    1
   17    14    17    1
   18    17    18    1
   19    17    19    1
   20    17    20    1
   21    20    21    1
   22    22    23    1
   23    22    24    1
   24    22    25    1
   25    25    26    1
   26    25    27    1
   27    27    28    1
   28    25    29    1
   29    29    30    1
   30    29    31    1
   31    31    32    1
   32     3    33    1
   33    29    33    1
   34    33    34    1
   35    33    35    1
   36    35    36    1
   37    22    37    1
   38    35    37    1
   39    35    38    1
   40    38    39    1
   41    38    40    1
   42    38    41    1
   43    41    42    1
   44    43    44    1
   45    43    45    1
   46    43    46    1
   47    46    47    1
   48    46    48    1
   49    48    49    1
   50    46    50    1
   51    50    51    1
   52    50    52    1
   53    52    53    1
   54    24    54    1
   55    50    54    1
   56    54    55    1
   57    54    56    1
   58    56    57    1
   59    43    58    1
   60    56    58    1
   61    56    59    1
   62    59    60    1
   63    59    61    1
   64    59    62    1
   65    62    63    1
   66    64    65    1
   67    64    66    1
   68    64    67    1
   69    67    68    1
   70    67    69    1
   71    69    70    1
   72    67    71    1
   73    71    72    1
   74    71    73    1
   75    73    74    1
   76    45    75    1
   77    71    75    1
   78    75    76    1
   79    75    77    1
   80    77    78    1
   81    64    79    1
   82    77    79    1
   83    77    80    1
   84    80    81    1
   85    80    82    1
   86    80    83    1
   87    83    84    1
   88    85    86    1
   89    85    87    1
   90    85    88    1
   91    88    89    1
   92    88    90    1
   93    90    91    1
   94    88    92    1
   95    92    93    1
   96    92    94    1
   97    94    95    1
   98    66    96    1
   99    92    96    1
  100    96    97    1
  101    96    98    1
  102    98    99    1
  103    85   100    1
  104    98   100    1
  105    98   101    1
  106   101   102    1
  107   101   103    1
  108   101   104    1
  109   104   105    1
  110   106   107    1
  111    12   108    1
  112   106   108    1
  113   106   109    1
  114   109   110    1
  115   109   111    1
  116   111   112    1
  117   109   113    1
  118   113   114    1
  119   113   115    1
  120   115   116    1
  121    87   117    1
  122   113   117    1
  123   117   118    1
  124   117   119    1
  125   119   120    1
  126   106   121    1
  127   119   121    1
  128   119   122    1
  129   122   123    1
  130   122   124    1
  131   122   125    1
  132   125   126    1
  133   127   128    1
  134   127   129    2
  135   127   130    1
  136   130   131    1
  137   130   132    1
  138   130   133    1
  139   133   134    1
  140   133   135    2
  141   135   136    1
  142   135   137    1
  143   137   138    1
  144   137   139    1
  145   137   140    1
  146   140   141    1
  147   140   142    1
  148   140   143    1
@<TRIPOS>SUBSTRUCTURE
       1 MOL1            1 RESIDUE      1      MOL     
       2 MOL1          143 RESIDUE      1      MOL     
@<SCITEGIC>MOL_PROPERTY
VM2 Rank
SciTegic.value.IntegerValue
1

@<SCITEGIC>MOL_PROPERTY
Conf_Id
SciTegic.value.IntegerValue
7525

@<SCITEGIC>MOL_PROPERTY
Probability
SciTegic.value.DoubleValue
1.50

@<SCITEGIC>MOL_PROPERTY
Sum Probability
SciTegic.value.DoubleValue
1.50

@<SCITEGIC>MOL_PROPERTY
Delta G
SciTegic.value.DoubleValue
0.000

@<SCITEGIC>MOL_PROPERTY
G
SciTegic.value.DoubleValue
490.265

@<SCITEGIC>MOL_PROPERTY
E
SciTegic.value.DoubleValue
304.899

@<SCITEGIC>MOL_PROPERTY
-TS
SciTegic.value.DoubleValue
185.366

@<SCITEGIC>MOL_PROPERTY
U+W
SciTegic.value.DoubleValue
178.811

@<SCITEGIC>MOL_PROPERTY
U
SciTegic.value.DoubleValue
238.825

@<SCITEGIC>MOL_PROPERTY
W
SciTegic.value.DoubleValue
-60.014

@<SCITEGIC>MOL_PROPERTY
W(PB)
SciTegic.value.DoubleValue
-66.048

@<SCITEGIC>MOL_PROPERTY
W(SA)
SciTegic.value.DoubleValue
6.034

@<SCITEGIC>MOL_PROPERTY
Valence
SciTegic.value.DoubleValue
158.808

@<SCITEGIC>MOL_PROPERTY
Coulomb
SciTegic.value.DoubleValue
99.764

@<SCITEGIC>MOL_PROPERTY
VdW
SciTegic.value.DoubleValue
-19.746

@<SCITEGIC>MOL_PROPERTY
VdW6
SciTegic.value.DoubleValue
-181.840

@<SCITEGIC>MOL_PROPERTY
VdW12
SciTegic.value.DoubleValue
162.094

@<SCITEGIC>MOL_PROPERTY
Bond
SciTegic.value.DoubleValue
5.179

@<SCITEGIC>MOL_PROPERTY
Angle
SciTegic.value.DoubleValue
12.624

@<SCITEGIC>MOL_PROPERTY
Pdih
SciTegic.value.DoubleValue
140.998

@<SCITEGIC>MOL_PROPERTY
Idih
SciTegic.value.DoubleValue
0.007

@<SCITEGIC>MOL_PROPERTY
Tether
SciTegic.value.DoubleValue
0.000

@<TRIPOS>MOLECULE
CD_guest-s20_vm2_rndm.mol2 : vm2 host+ligand conformer 2
         143         148           2
SMALL
USER_CHARGES
 
@<TRIPOS>ATOM
       1    C1      16.315471   15.231833   20.659350 C.3        1 MOL1         0.2972
       2    H1      15.288429   15.056259   20.314612 H          1 MOL1         0.0751
       3    O1      16.481727   16.568978   21.169155 O.3        1 MOL1        -0.3740
       4    C2      16.683943   14.228238   21.783745 C.3        1 MOL1         0.1003
       5    H2      16.553381   13.217836   21.374983 H          1 MOL1         0.0783
       6    O2      15.830148   14.390602   22.925478 O.3        1 MOL1        -0.5519
       7    H3      16.226807   13.814218   23.616677 H          1 MOL1         0.3769
       8    C3      18.162786   14.378929   22.214538 C.3        1 MOL1         0.1053
       9    H4      18.273999   15.348166   22.718958 H          1 MOL1         0.0783
      10    O3      18.507541   13.320661   23.117171 O.3        1 MOL1        -0.5519
      11    H5      19.431190   13.500810   23.424412 H          1 MOL1         0.3769
      12    C4      19.110757   14.358549   20.989278 C.3        1 MOL1         0.1018
      13    H6      19.164550   13.338013   20.587476 H          1 MOL1         0.0783
      14    C5      18.632984   15.312869   19.864082 C.3        1 MOL1         0.1043
      15    H7      18.755568   16.348603   20.203649 H          1 MOL1         0.0783
      16    O4      17.240545   15.047260   19.567073 O.3        1 MOL1        -0.3740
      17    C6      19.426291   15.145135   18.549289 C.3        1 MOL1         0.0138
      18    H8      20.488200   15.344142   18.740299 H          1 MOL1         0.0794
      19    H9      19.075719   15.896025   17.828749 H          1 MOL1         0.0794
      20    O5      19.260947   13.828686   18.014317 O.3        1 MOL1        -0.5486
      21    H10     18.290812   13.681295   17.954178 H          1 MOL1         0.3769
      22    C7      14.679710   20.277635   21.203093 C.3        1 MOL1         0.2972
      23    H11     14.018317   21.152040   21.148863 H          1 MOL1         0.0751
      24    O6      16.068592   20.667858   21.267659 O.3        1 MOL1        -0.3740
      25    C8      14.330132   19.387595   22.424895 C.3        1 MOL1         0.1003
      26    H12     13.313397   19.006372   22.265537 H          1 MOL1         0.0783
      27    O7      14.343464   20.151789   23.639535 O.3        1 MOL1        -0.5519
      28    H13     15.279248   20.435322   23.791655 H          1 MOL1         0.3769
      29    C9      15.285299   18.164621   22.487185 C.3        1 MOL1         0.1053
      30    H14     16.300590   18.525771   22.704237 H          1 MOL1         0.0783
      31    O8      14.865100   17.241314   23.500156 O.3        1 MOL1        -0.5519
      32    H15     15.362939   16.402955   23.341391 H          1 MOL1         0.3769
      33    C10     15.311720   17.409765   21.133258 C.3        1 MOL1         0.1018
      34    H16     14.389229   16.818248   21.062073 H          1 MOL1         0.0783
      35    C11     15.423618   18.348097   19.896565 C.3        1 MOL1         0.1043
      36    H17     16.450051   18.728291   19.839879 H          1 MOL1         0.0783
      37    O9      14.504860   19.460282   20.027873 O.3        1 MOL1        -0.3740
      38    C12     15.108112   17.647649   18.555743 C.3        1 MOL1         0.0138
      39    H18     15.861916   16.873617   18.365288 H          1 MOL1         0.0794
      40    H19     15.190367   18.385064   17.746137 H          1 MOL1         0.0794
      41    O10     13.798693   17.070883   18.568704 O.3        1 MOL1        -0.5486
      42    H20     13.176871   17.806572   18.764912 H          1 MOL1         0.3769
      43    C13     18.574763   23.907409   21.872618 C.3        1 MOL1         0.2972
      44    H21     19.024664   24.880127   22.106593 H          1 MOL1         0.0751
      45    O11     19.484333   23.063579   21.131980 O.3        1 MOL1        -0.3740
      46    C14     18.152308   23.176978   23.174449 C.3        1 MOL1         0.1003
      47    H22     17.391824   23.798477   23.664394 H          1 MOL1         0.0783
      48    O12     19.275504   23.040628   24.061288 O.3        1 MOL1        -0.5519
      49    H23     19.265480   22.118675   24.432322 H          1 MOL1         0.3769
      50    C15     17.495621   21.811649   22.841647 C.3        1 MOL1         0.1053
      51    H24     18.259596   21.161217   22.401978 H          1 MOL1         0.0783
      52    O13     16.974595   21.214478   24.034687 O.3        1 MOL1        -0.5519
      53    H25     17.759345   20.843865   24.518258 H          1 MOL1         0.3769
      54    C16     16.351584   21.975331   21.806470 C.3        1 MOL1         0.1018
      55    H26     15.479026   22.403179   22.317888 H          1 MOL1         0.0783
      56    C17     16.754163   22.876151   20.604867 C.3        1 MOL1         0.1043
      57    H27     17.460354   22.316811   19.976956 H          1 MOL1         0.0783
      58    O14     17.383902   24.092072   21.077982 O.3        1 MOL1        -0.3740
      59    C18     15.557913   23.280941   19.714649 C.3        1 MOL1         0.0138
      60    H28     15.132850   22.379042   19.254406 H          1 MOL1         0.0794
      61    H29     15.924536   23.920816   18.900827 H          1 MOL1         0.0794
      62    O15     14.556705   23.966413   20.472696 O.3        1 MOL1        -0.5486
      63    H30     15.004381   24.739709   20.882861 H          1 MOL1         0.3769
      64    C19     23.536072   22.673051   20.381951 C.3        1 MOL1         0.2972
      65    H31     24.581074   22.762625   20.058635 H          1 MOL1         0.0751
      66    O16     23.232893   21.322292   20.798737 O.3        1 MOL1        -0.3740
      67    C20     23.214873   23.685729   21.514206 C.3        1 MOL1         0.1003
      68    H32     23.337050   24.689571   21.087717 H          1 MOL1         0.0783
      69    O17     24.126906   23.548420   22.614251 O.3        1 MOL1        -0.5519
      70    H33     23.855106   22.730047   23.099414 H          1 MOL1         0.3769
      71    C21     21.736109   23.547055   21.966612 C.3        1 MOL1         0.1053
      72    H34     21.613297   22.561452   22.436134 H          1 MOL1         0.0783
      73    O18     21.421899   24.576654   22.911456 O.3        1 MOL1        -0.5519
      74    H35     20.718255   24.194158   23.491112 H          1 MOL1         0.3769
      75    C22     20.760799   23.626041   20.754692 C.3        1 MOL1         0.1018
      76    H36     20.652370   24.671813   20.438411 H          1 MOL1         0.0783
      77    C23     21.243672   22.781843   19.542271 C.3        1 MOL1         0.1043
      78    H37     21.072814   21.724842   19.776105 H          1 MOL1         0.0783
      79    O19     22.654697   22.998252   19.287784 O.3        1 MOL1        -0.3740
      80    C24     20.474740   23.101439   18.241566 C.3        1 MOL1         0.0138
      81    H38     19.403642   22.922882   18.405397 H          1 MOL1         0.0794
      82    H39     20.807946   22.409106   17.456949 H          1 MOL1         0.0794
      83    O20     20.693883   24.455487   17.834513 O.3        1 MOL1        -0.5486
      84    H40     21.669399   24.570892   17.791287 H          1 MOL1         0.3769
      85    C25     24.899918   17.841315   22.339731 C.3        1 MOL1         0.2972
      86    H41     25.546325   17.076312   22.788180 H          1 MOL1         0.0751
      87    O21     23.711637   17.261742   21.761643 O.3        1 MOL1        -0.3740
      88    C26     24.490009   18.891930   23.404151 C.3        1 MOL1         0.1003
      89    H42     25.410435   19.377008   23.753785 H          1 MOL1         0.0783
      90    O22     23.851363   18.256983   24.522858 O.3        1 MOL1        -0.5519
      91    H43     23.035175   18.781893   24.737967 H          1 MOL1         0.3769
      92    C27     23.594176   19.988385   22.773882 C.3        1 MOL1         0.1053
      93    H44     22.646236   19.524858   22.469837 H          1 MOL1         0.0783
      94    O23     23.350524   21.022959   23.735151 O.3        1 MOL1        -0.5519
      95    H45     22.626941   20.680627   24.324506 H          1 MOL1         0.3769
      96    C28     24.258521   20.598194   21.511516 C.3        1 MOL1         0.1018
      97    H46     25.078915   21.255259   21.827734 H          1 MOL1         0.0783
      98    C29     24.809965   19.508874   20.549290 C.3        1 MOL1         0.1043
      99    H47     23.957844   19.003273   20.076205 H          1 MOL1         0.0783
     100    O24     25.600537   18.543852   21.289928 O.3        1 MOL1        -0.3740
     101    C30     25.697435   20.079753   19.420979 C.3        1 MOL1         0.0138
     102    H48     25.087574   20.732454   18.782306 H          1 MOL1         0.0794
     103    H49     26.050987   19.248825   18.795916 H          1 MOL1         0.0794
     104    O25     26.807884   20.808096   19.952874 O.3        1 MOL1        -0.5486
     105    H50     27.287924   20.184879   20.542558 H          1 MOL1         0.3769
     106    C31     21.437471   13.834177   21.523316 C.3        1 MOL1         0.2972
     107    H51     21.037450   12.816179   21.435621 H          1 MOL1         0.0751
     108    O26     20.394206   14.827786   21.443281 O.3        1 MOL1        -0.3740
     109    C32     22.181167   13.991821   22.870335 C.3        1 MOL1         0.1003
     110    H52     23.012065   13.274290   22.869092 H          1 MOL1         0.0783
     111    O27     21.316141   13.705835   23.978425 O.3        1 MOL1        -0.5519
     112    H53     21.826975   13.990257   24.769395 H          1 MOL1         0.3769
     113    C33     22.781571   15.409153   23.017197 C.3        1 MOL1         0.1053
     114    H54     21.950488   16.119702   23.125090 H          1 MOL1         0.0783
     115    O28     23.604779   15.433670   24.188694 O.3        1 MOL1        -0.5519
     116    H55     23.752878   16.388305   24.401219 H          1 MOL1         0.3769
     117    C34     23.607863   15.822995   21.767473 C.3        1 MOL1         0.1018
     118    H56     24.595222   15.343664   21.798565 H          1 MOL1         0.0783
     119    C35     22.908117   15.449620   20.432278 C.3        1 MOL1         0.1043
     120    H57     22.078941   16.149131   20.280409 H          1 MOL1         0.0783
     121    O29     22.394232   14.095360   20.476910 O.3        1 MOL1        -0.3740
     122    C36     23.846377   15.559620   19.210488 C.3        1 MOL1         0.0138
     123    H58     24.231833   16.585997   19.145474 H          1 MOL1         0.0794
     124    H59     23.263555   15.366933   18.299870 H          1 MOL1         0.0794
     125    O30     24.929735   14.630760   19.311083 O.3        1 MOL1        -0.5486
     126    H60     24.518288   13.749072   19.453624 H          1 MOL1         0.3769
     127    C1      20.209105   19.477670   24.710377 C.2        1 MOL1         0.6132
     128    O1      21.396434   19.511699   24.971760 O.co2      1 MOL1        -0.6749
     129    O2      19.440282   20.387306   24.958069 O.co2      1 MOL1        -0.6749
     130    C2      19.649246   18.219831   24.053771 C.3        1 MOL1        -0.1955
     131    H1      18.704637   17.989450   24.559562 H          1 MOL1         0.0733
     132    H2      20.319753   17.381812   24.273697 H          1 MOL1         0.0733
     133    C3      19.401307   18.309161   22.555270 C.2        1 MOL1        -0.1395
     134    H3      18.761838   17.523258   22.164081 H          1 MOL1         0.0816
     135    C4      19.855088   19.258760   21.729719 C.2        1 MOL1        -0.1394
     136    H4      20.478928   20.072009   22.097441 H          1 MOL1         0.0816
     137    C5      19.506518   19.330534   20.259494 C.3        1 MOL1        -0.1826
     138    H5      18.640549   18.694530   20.044485 H          1 MOL1         0.0736
     139    H6      19.209964   20.355362   20.002567 H          1 MOL1         0.0736
     140    C6      20.684890   18.888283   19.372042 C.3        1 MOL1        -0.2882
     141    H7      20.438724   19.008330   18.309538 H          1 MOL1         0.0749
     142    H8      21.583665   19.478938   19.586184 H          1 MOL1         0.0749
     143    H9      20.921112   17.834616   19.549725 H          1 MOL1         0.0749
@<TRIPOS>BOND
    1     1     2    1
    2     1     3    1
    3     1     4    1
    4     4     5    1
    5     4     6    1
    6     6     7    1
    7     4     8    1
    8     8     9    1
    9     8    10    1
   10    10    11    1
   11     8    12    1
   12    12    13    1
   13    12    14    1
   14    14    15    1
   15     1    16    1
   16    14    16    1
   17    14    17    1
   18    17    18    1
   19    17    19    1
   20    17    20    1
   21    20    21    1
   22    22    23    1
   23    22    24    1
   24    22    25    1
   25    25    26    1
   26    25    27    1
   27    27    28    1
   28    25    29    1
   29    29    30    1
   30    29    31    1
   31    31    32    1
   32     3    33    1
   33    29    33    1
   34    33    34    1
   35    33    35    1
   36    35    36    1
   37    22    37    1
   38    35    37    1
   39    35    38    1
   40    38    39    1
   41    38    40    1
   42    38    41    1
   43    41    42    1
   44    43    44    1
   45    43    45    1
   46    43    46    1
   47    46    47    1
   48    46    48    1
   49    48    49    1
   50    46    50    1
   51    50    51    1
   52    50    52    1
   53    52    53    1
   54    24    54    1
   55    50    54    1
   56    54    55    1
   57    54    56    1
   58    56    57    1
   59    43    58    1
   60    56    58    1
   61    56    59    1
   62    59    60    1
   63    59    61    1
   64    59    62    1
   65    62    63    1
   66    64    65    1
   67    64    66    1
   68    64    67    1
   69    67    68    1
   70    67    69    1
   71    69    70    1
   72    67    71    1
   73    71    72    1
   74    71    73    1
   75    73    74    1
   76    45    75    1
   77    71    75    1
   78    75    76    1
   79    75    77    1
   80    77    78    1
   81    64    79    1
   82    77    79    1
   83    77    80    1
   84    80    81    1
   85    80    82    1
   86    80    83    1
   87    83    84    1
   88    85    86    1
   89    85    87    1
   90    85    88    1
   91    88    89    1
   92    88    90    1
   93    90    91    1
   94    88    92    1
   95    92    93    1
   96    92    94    1
   97    94    95    1
   98    66    96    1
   99    92    96    1
  100    96    97    1
  101    96    98    1
  102    98    99    1
  103    85   100    1
  104    98   100    1
  105    98   101    1
  106   101   102    1
  107   101   103    1
  108   101   104    1
  109   104   105    1
  110   106   107    1
  111    12   108    1
  112   106   108    1
  113   106   109    1
  114   109   110    1
  115   109   111    1
  116   111   112    1
  117   109   113    1
  118   113   114    1
  119   113   115    1
  120   115   116    1
  121    87   117    1
  122   113   117    1
  123   117   118    1
  124   117   119    1
  125   119   120    1
  126   106   121    1
  127   119   121    1
  128   119   122    1
  129   122   123    1
  130   122   124    1
  131   122   125    1
  132   125   126    1
  133   127   128    1
  134   127   129    2
  135   127   130    1
  136   130   131    1
  137   130   132    1
  138   130   133    1
  139   133   134    1
  140   133   135    2
  141   135   136    1
  142   135   137    1
  143   137   138    1
  144   137   139    1
  145   137   140    1
  146   140   141    1
  147   140   142    1
  148   140   143    1
@<TRIPOS>SUBSTRUCTURE
       1 MOL1            1 RESIDUE      1      MOL     
       2 MOL1          143 RESIDUE      1      MOL     
@<SCITEGIC>MOL_PROPERTY
VM2 Rank
SciTegic.value.IntegerValue
2

@<SCITEGIC>MOL_PROPERTY
Conf_Id
SciTegic.value.IntegerValue
18629

@<SCITEGIC>MOL_PROPERTY
Probability
SciTegic.value.DoubleValue
1.38

@<SCITEGIC>MOL_PROPERTY
Sum Probability
SciTegic.value.DoubleValue
2.88

@<SCITEGIC>MOL_PROPERTY
Delta G
SciTegic.value.DoubleValue
0.048

@<SCITEGIC>MOL_PROPERTY
G
SciTegic.value.DoubleValue
490.313

@<SCITEGIC>MOL_PROPERTY
E
SciTegic.value.DoubleValue
304.921

@<SCITEGIC>MOL_PROPERTY
-TS
SciTegic.value.DoubleValue
185.392

@<SCITEGIC>MOL_PROPERTY
U+W
SciTegic.value.DoubleValue
178.833

@<SCITEGIC>MOL_PROPERTY
U
SciTegic.value.DoubleValue
240.381

@<SCITEGIC>MOL_PROPERTY
W
SciTegic.value.DoubleValue
-61.548

@<SCITEGIC>MOL_PROPERTY
W(PB)
SciTegic.value.DoubleValue
-67.569

@<SCITEGIC>MOL_PROPERTY
W(SA)
SciTegic.value.DoubleValue
6.020

@<SCITEGIC>MOL_PROPERTY
Valence
SciTegic.value.DoubleValue
158.361

@<SCITEGIC>MOL_PROPERTY
Coulomb
SciTegic.value.DoubleValue
101.919

@<SCITEGIC>MOL_PROPERTY
VdW
SciTegic.value.DoubleValue
-19.899

@<SCITEGIC>MOL_PROPERTY
VdW6
SciTegic.value.DoubleValue
-181.036

@<SCITEGIC>MOL_PROPERTY
VdW12
SciTegic.value.DoubleValue
161.136

@<SCITEGIC>MOL_PROPERTY
Bond
SciTegic.value.DoubleValue
5.128

@<SCITEGIC>MOL_PROPERTY
Angle
SciTegic.value.DoubleValue
12.615

@<SCITEGIC>MOL_PROPERTY
Pdih
SciTegic.value.DoubleValue
140.610

@<SCITEGIC>MOL_PROPERTY
Idih
SciTegic.value.DoubleValue
0.008

@<SCITEGIC>MOL_PROPERTY
Tether
SciTegic.value.DoubleValue
0.000

@<TRIPOS>MOLECULE
CD_guest-s20_vm2_rndm.mol2 : vm2 host+ligand conformer 3
         143         148           2
SMALL
USER_CHARGES
 
@<TRIPOS>ATOM
       1    C1      16.337291   15.238489   20.469331 C.3        1 MOL1         0.2972
       2    H1      15.326741   15.087443   20.068056 H          1 MOL1         0.0751
       3    O1      16.499258   16.560846   21.016498 O.3        1 MOL1        -0.3740
       4    C2      16.641880   14.211716   21.591561 C.3        1 MOL1         0.1003
       5    H2      16.537903   13.209681   21.156335 H          1 MOL1         0.0783
       6    O2      15.694063   14.357850   22.662710 O.3        1 MOL1        -0.5519
       7    H3      15.715083   15.305138   22.948574 H          1 MOL1         0.3769
       8    C3      18.103647   14.358950   22.098626 C.3        1 MOL1         0.1053
       9    H4      18.179371   15.310218   22.642867 H          1 MOL1         0.0783
      10    O3      18.445808   13.271821   22.967616 O.3        1 MOL1        -0.5519
      11    H5      19.324805   13.492908   23.363775 H          1 MOL1         0.3769
      12    C4      19.110971   14.391823   20.917942 C.3        1 MOL1         0.1018
      13    H6      19.200267   13.384714   20.489077 H          1 MOL1         0.0783
      14    C5      18.680474   15.363941   19.791371 C.3        1 MOL1         0.1043
      15    H7      18.770510   16.396532   20.151929 H          1 MOL1         0.0783
      16    O4      17.313010   15.068231   19.421318 O.3        1 MOL1        -0.3740
      17    C6      19.545493   15.204344   18.523495 C.3        1 MOL1         0.0138
      18    H8      19.418088   14.189452   18.123942 H          1 MOL1         0.0794
      19    H9      20.603393   15.328821   18.785483 H          1 MOL1         0.0794
      20    O5      19.169399   16.177169   17.547534 O.3        1 MOL1        -0.5486
      21    H10     18.190900   16.126830   17.478557 H          1 MOL1         0.3769
      22    C7      14.634891   20.194108   21.402939 C.3        1 MOL1         0.2972
      23    H11     13.973473   21.068269   21.460517 H          1 MOL1         0.0751
      24    O6      16.025858   20.580088   21.315115 O.3        1 MOL1        -0.3740
      25    C8      14.429971   19.250296   22.615710 C.3        1 MOL1         0.1003
      26    H12     13.416146   18.837005   22.534308 H          1 MOL1         0.0783
      27    O7      14.536318   19.941426   23.867362 O.3        1 MOL1        -0.5519
      28    H13     15.438176   20.349230   23.898444 H          1 MOL1         0.3769
      29    C9      15.426624   18.069097   22.533383 C.3        1 MOL1         0.1053
      30    H14     16.448464   18.465319   22.622665 H          1 MOL1         0.0783
      31    O8      15.168226   17.149350   23.599885 O.3        1 MOL1        -0.5519
      32    H15     15.061489   17.710573   24.399831 H          1 MOL1         0.3769
      33    C10     15.297696   17.337937   21.172037 C.3        1 MOL1         0.1018
      34    H16     14.404990   16.699768   21.214447 H          1 MOL1         0.0783
      35    C11     15.201968   18.303861   19.951058 C.3        1 MOL1         0.1043
      36    H17     16.201862   18.698631   19.741676 H          1 MOL1         0.0783
      37    O9      14.310296   19.411048   20.234911 O.3        1 MOL1        -0.3740
      38    C12     14.700278   17.618776   18.660313 C.3        1 MOL1         0.0138
      39    H18     15.432029   16.863034   18.346715 H          1 MOL1         0.0794
      40    H19     14.646674   18.369789   17.860801 H          1 MOL1         0.0794
      41    O10     13.419166   17.013898   18.859238 O.3        1 MOL1        -0.5486
      42    H20     12.817059   17.734019   19.151389 H          1 MOL1         0.3769
      43    C13     18.598704   23.820262   21.763795 C.3        1 MOL1         0.2972
      44    H21     19.041953   24.802138   21.969481 H          1 MOL1         0.0751
      45    O11     19.497886   22.979310   21.006736 O.3        1 MOL1        -0.3740
      46    C14     18.227760   23.101839   23.088574 C.3        1 MOL1         0.1003
      47    H22     17.478341   23.723296   23.595466 H          1 MOL1         0.0783
      48    O12     19.381779   22.994880   23.938312 O.3        1 MOL1        -0.5519
      49    H23     19.305325   22.163332   24.475162 H          1 MOL1         0.3769
      50    C15     17.568855   21.725984   22.798490 C.3        1 MOL1         0.1053
      51    H24     18.312905   21.066969   22.332785 H          1 MOL1         0.0783
      52    O13     17.093655   21.150704   24.020593 O.3        1 MOL1        -0.5519
      53    H25     17.893318   20.857020   24.530620 H          1 MOL1         0.3769
      54    C16     16.375300   21.886823   21.817733 C.3        1 MOL1         0.1018
      55    H26     15.540156   22.347436   22.362044 H          1 MOL1         0.0783
      56    C17     16.735933   22.757606   20.582068 C.3        1 MOL1         0.1043
      57    H27     17.419029   22.184872   19.941432 H          1 MOL1         0.0783
      58    O14     17.380961   23.983438   21.005491 O.3        1 MOL1        -0.3740
      59    C18     15.505601   23.142920   19.730362 C.3        1 MOL1         0.0138
      60    H28     15.055326   22.229731   19.318614 H          1 MOL1         0.0794
      61    H29     15.841186   23.753645   18.881548 H          1 MOL1         0.0794
      62    O15     14.542124   23.859903   20.508249 O.3        1 MOL1        -0.5486
      63    H30     15.013727   24.639574   20.877494 H          1 MOL1         0.3769
      64    C19     23.567715   22.598777   20.306212 C.3        1 MOL1         0.2972
      65    H31     24.613241   22.683822   19.983434 H          1 MOL1         0.0751
      66    O16     23.278224   21.269765   20.794757 O.3        1 MOL1        -0.3740
      67    C20     23.228955   23.663242   21.382847 C.3        1 MOL1         0.1003
      68    H32     23.339067   24.645645   20.906096 H          1 MOL1         0.0783
      69    O17     24.139203   23.593931   22.490946 O.3        1 MOL1        -0.5519
      70    H33     23.881297   22.794870   23.014416 H          1 MOL1         0.3769
      71    C21     21.750461   23.526231   21.836208 C.3        1 MOL1         0.1053
      72    H34     21.640005   22.562659   22.352531 H          1 MOL1         0.0783
      73    O18     21.425138   24.596537   22.730347 O.3        1 MOL1        -0.5519
      74    H35     20.751287   24.219610   23.347753 H          1 MOL1         0.3769
      75    C22     20.776619   23.534794   20.618607 C.3        1 MOL1         0.1018
      76    H36     20.660336   24.563331   20.252725 H          1 MOL1         0.0783
      77    C23     21.276758   22.639367   19.449803 C.3        1 MOL1         0.1043
      78    H37     21.114447   21.592107   19.730296 H          1 MOL1         0.0783
      79    O19     22.687603   22.856997   19.192995 O.3        1 MOL1        -0.3740
      80    C24     20.513214   22.890929   18.130939 C.3        1 MOL1         0.0138
      81    H38     19.442543   22.711142   18.296888 H          1 MOL1         0.0794
      82    H39     20.856596   22.165188   17.381727 H          1 MOL1         0.0794
      83    O20     20.724100   24.226103   17.661613 O.3        1 MOL1        -0.5486
      84    H40     21.698906   24.347584   17.619345 H          1 MOL1         0.3769
      85    C25     24.905179   17.852531   22.463539 C.3        1 MOL1         0.2972
      86    H41     25.527697   17.082714   22.936768 H          1 MOL1         0.0751
      87    O21     23.703885   17.290815   21.893207 O.3        1 MOL1        -0.3740
      88    C26     24.518261   18.940815   23.497797 C.3        1 MOL1         0.1003
      89    H42     25.448008   19.412061   23.841499 H          1 MOL1         0.0783
      90    O22     23.854568   18.346975   24.625235 O.3        1 MOL1        -0.5519
      91    H43     23.085793   18.929835   24.864141 H          1 MOL1         0.3769
      92    C27     23.652123   20.040420   22.833662 C.3        1 MOL1         0.1053
      93    H44     22.695648   19.587191   22.554722 H          1 MOL1         0.0783
      94    O23     23.434123   21.113831   23.758124 O.3        1 MOL1        -0.5519
      95    H45     22.717046   20.806119   24.374458 H          1 MOL1         0.3769
      96    C28     24.312153   20.590490   21.540296 C.3        1 MOL1         0.1018
      97    H46     25.128475   21.268110   21.821785 H          1 MOL1         0.0783
      98    C29     24.864636   19.463388   20.622619 C.3        1 MOL1         0.1043
      99    H47     24.011925   18.955788   20.152253 H          1 MOL1         0.0783
     100    O24     25.630493   18.509513   21.401897 O.3        1 MOL1        -0.3740
     101    C30     25.775283   19.986098   19.489448 C.3        1 MOL1         0.0138
     102    H48     25.183868   20.626961   18.822169 H          1 MOL1         0.0794
     103    H49     26.125033   19.130968   18.895651 H          1 MOL1         0.0794
     104    O25     26.889168   20.714581   20.013710 O.3        1 MOL1        -0.5486
     105    H50     27.350867   20.103720   20.630413 H          1 MOL1         0.3769
     106    C31     21.405282   13.875743   21.594190 C.3        1 MOL1         0.2972
     107    H51     21.008991   12.856116   21.507887 H          1 MOL1         0.0751
     108    O26     20.367909   14.864906   21.438211 O.3        1 MOL1        -0.3740
     109    C32     22.080281   14.060219   22.974277 C.3        1 MOL1         0.1003
     110    H52     22.906078   13.339088   23.031066 H          1 MOL1         0.0783
     111    O27     21.158247   13.801480   24.042186 O.3        1 MOL1        -0.5519
     112    H53     21.626021   14.109138   24.850853 H          1 MOL1         0.3769
     113    C33     22.681081   15.476947   23.122756 C.3        1 MOL1         0.1053
     114    H54     21.851521   16.194834   23.172732 H          1 MOL1         0.0783
     115    O28     23.442649   15.525582   24.334394 O.3        1 MOL1        -0.5519
     116    H55     23.617426   16.483012   24.512512 H          1 MOL1         0.3769
     117    C34     23.574704   15.854910   21.909632 C.3        1 MOL1         0.1018
     118    H56     24.550076   15.358719   21.999215 H          1 MOL1         0.0783
     119    C35     22.936675   15.468980   20.546576 C.3        1 MOL1         0.1043
     120    H57     22.125113   16.176245   20.337900 H          1 MOL1         0.0783
     121    O29     22.408621   14.118285   20.587024 O.3        1 MOL1        -0.3740
     122    C36     23.938482   15.547451   19.373600 C.3        1 MOL1         0.0138
     123    H58     24.342713   16.566848   19.314407 H          1 MOL1         0.0794
     124    H59     23.400790   15.350466   18.436543 H          1 MOL1         0.0794
     125    O30     25.001062   14.604628   19.542989 O.3        1 MOL1        -0.5486
     126    H60     24.569811   13.731845   19.681482 H          1 MOL1         0.3769
     127    C1      20.289613   19.633685   24.999268 C.2        1 MOL1         0.6132
     128    O1      19.490521   20.520896   25.231280 O.co2      1 MOL1        -0.6749
     129    O2      21.488090   19.740692   25.181635 O.co2      1 MOL1        -0.6749
     130    C2      19.756168   18.322465   24.431064 C.3        1 MOL1        -0.1955
     131    H1      18.705839   18.216374   24.726168 H          1 MOL1         0.0733
     132    H2      20.295179   17.509565   24.930937 H          1 MOL1         0.0733
     133    C3      19.885827   18.159096   22.924652 C.2        1 MOL1        -0.1395
     134    H3      19.682541   17.153900   22.563941 H          1 MOL1         0.0816
     135    C4      20.244588   19.109744   22.055551 C.2        1 MOL1        -0.1394
     136    H4      20.458028   20.125143   22.387099 H          1 MOL1         0.0816
     137    C5      20.426097   18.867128   20.575459 C.3        1 MOL1        -0.1826
     138    H5      21.332108   19.373474   20.220646 H          1 MOL1         0.0736
     139    H6      20.574956   17.798489   20.383474 H          1 MOL1         0.0736
     140    C6      19.201372   19.355411   19.783748 C.3        1 MOL1        -0.2882
     141    H7      19.324565   19.160304   18.710861 H          1 MOL1         0.0749
     142    H8      18.304851   18.830359   20.128911 H          1 MOL1         0.0749
     143    H9      19.041774   20.430177   19.927828 H          1 MOL1         0.0749
@<TRIPOS>BOND
    1     1     2    1
    2     1     3    1
    3     1     4    1
    4     4     5    1
    5     4     6    1
    6     6     7    1
    7     4     8    1
    8     8     9    1
    9     8    10    1
   10    10    11    1
   11     8    12    1
   12    12    13    1
   13    12    14    1
   14    14    15    1
   15     1    16    1
   16    14    16    1
   17    14    17    1
   18    17    18    1
   19    17    19    1
   20    17    20    1
   21    20    21    1
   22    22    23    1
   23    22    24    1
   24    22    25    1
   25    25    26    1
   26    25    27    1
   27    27    28    1
   28    25    29    1
   29    29    30    1
   30    29    31    1
   31    31    32    1
   32     3    33    1
   33    29    33    1
   34    33    34    1
   35    33    35    1
   36    35    36    1
   37    22    37    1
   38    35    37    1
   39    35    38    1
   40    38    39    1
   41    38    40    1
   42    38    41    1
   43    41    42    1
   44    43    44    1
   45    43    45    1
   46    43    46    1
   47    46    47    1
   48    46    48    1
   49    48    49    1
   50    46    50    1
   51    50    51    1
   52    50    52    1
   53    52    53    1
   54    24    54    1
   55    50    54    1
   56    54    55    1
   57    54    56    1
   58    56    57    1
   59    43    58    1
   60    56    58    1
   61    56    59    1
   62    59    60    1
   63    59    61    1
   64    59    62    1
   65    62    63    1
   66    64    65    1
   67    64    66    1
   68    64    67    1
   69    67    68    1
   70    67    69    1
   71    69    70    1
   72    67    71    1
   73    71    72    1
   74    71    73    1
   75    73    74    1
   76    45    75    1
   77    71    75    1
   78    75    76    1
   79    75    77    1
   80    77    78    1
   81    64    79    1
   82    77    79    1
   83    77    80    1
   84    80    81    1
   85    80    82    1
   86    80    83    1
   87    83    84    1
   88    85    86    1
   89    85    87    1
   90    85    88    1
   91    88    89    1
   92    88    90    1
   93    90    91    1
   94    88    92    1
   95    92    93    1
   96    92    94    1
   97    94    95    1
   98    66    96    1
   99    92    96    1
  100    96    97    1
  101    96    98    1
  102    98    99    1
  103    85   100    1
  104    98   100    1
  105    98   101    1
  106   101   102    1
  107   101   103    1
  108   101   104    1
  109   104   105    1
  110   106   107    1
  111    12   108    1
  112   106   108    1
  113   106   109    1
  114   109   110    1
  115   109   111    1
  116   111   112    1
  117   109   113    1
  118   113   114    1
  119   113   115    1
  120   115   116    1
  121    87   117    1
  122   113   117    1
  123   117   118    1
  124   117   119    1
  125   119   120    1
  126   106   121    1
  127   119   121    1
  128   119   122    1
  129   122   123    1
  130   122   124    1
  131   122   125    1
  132   125   126    1
  133   127   128    1
  134   127   129    2
  135   127   130    1
  136   130   131    1
  137   130   132    1
  138   130   133    1
  139   133   134    1
  140   133   135    2
  141   135   136    1
  142   135   137    1
  143   137   138    1
  144   137   139    1
  145   137   140    1
  146   140   141    1
  147   140   142    1
  148   140   143    1
@<TRIPOS>SUBSTRUCTURE
       1 MOL1            1 RESIDUE      1      MOL     
       2 MOL1          143 RESIDUE      1      MOL     
@<SCITEGIC>MOL_PROPERTY
VM2 Rank
SciTegic.value.IntegerValue
3

@<SCITEGIC>MOL_PROPERTY
Conf_Id
SciTegic.value.IntegerValue
14454

@<SCITEGIC>MOL_PROPERTY
Probability
SciTegic.value.DoubleValue
1.20

@<SCITEGIC>MOL_PROPERTY
Sum Probability
SciTegic.value.DoubleValue
4.08

@<SCITEGIC>MOL_PROPERTY
Delta G
SciTegic.value.DoubleValue
0.134

@<SCITEGIC>MOL_PROPERTY
G
SciTegic.value.DoubleValue
490.399

@<SCITEGIC>MOL_PROPERTY
E
SciTegic.value.DoubleValue
305.015

@<SCITEGIC>MOL_PROPERTY
-TS
SciTegic.value.DoubleValue
185.384

@<SCITEGIC>MOL_PROPERTY
U+W
SciTegic.value.DoubleValue
178.927

@<SCITEGIC>MOL_PROPERTY
U
SciTegic.value.DoubleValue
239.921

@<SCITEGIC>MOL_PROPERTY
W
SciTegic.value.DoubleValue
-60.994

@<SCITEGIC>MOL_PROPERTY
W(PB)
SciTegic.value.DoubleValue
-67.007

@<SCITEGIC>MOL_PROPERTY
W(SA)
SciTegic.value.DoubleValue
6.013

@<SCITEGIC>MOL_PROPERTY
Valence
SciTegic.value.DoubleValue
158.468

@<SCITEGIC>MOL_PROPERTY
Coulomb
SciTegic.value.DoubleValue
101.408

@<SCITEGIC>MOL_PROPERTY
VdW
SciTegic.value.DoubleValue
-19.954

@<SCITEGIC>MOL_PROPERTY
VdW6
SciTegic.value.DoubleValue
-182.081

@<SCITEGIC>MOL_PROPERTY
VdW12
SciTegic.value.DoubleValue
162.127

@<SCITEGIC>MOL_PROPERTY
Bond
SciTegic.value.DoubleValue
5.248

@<SCITEGIC>MOL_PROPERTY
Angle
SciTegic.value.DoubleValue
12.721

@<SCITEGIC>MOL_PROPERTY
Pdih
SciTegic.value.DoubleValue
140.495

@<SCITEGIC>MOL_PROPERTY
Idih
SciTegic.value.DoubleValue
0.004

@<SCITEGIC>MOL_PROPERTY
Tether
SciTegic.value.DoubleValue
0.000

@<TRIPOS>MOLECULE
CD_guest-s20_vm2_rndm.mol2 : vm2 host+ligand conformer 4
         143         148           2
SMALL
USER_CHARGES
 
@<TRIPOS>ATOM
       1    C1      16.326851   15.276141   20.609241 C.3        1 MOL1         0.2972
       2    H1      15.301225   15.106956   20.257127 H          1 MOL1         0.0751
       3    O1      16.489767   16.602455   21.147758 O.3        1 MOL1        -0.3740
       4    C2      16.692469   14.249026   21.713096 C.3        1 MOL1         0.1003
       5    H2      16.563707   13.247526   21.282442 H          1 MOL1         0.0783
       6    O2      15.834913   14.386725   22.855275 O.3        1 MOL1        -0.5519
       7    H3      16.229082   13.795306   23.535080 H          1 MOL1         0.3769
       8    C3      18.169856   14.390983   22.151934 C.3        1 MOL1         0.1053
       9    H4      18.278310   15.348827   22.678175 H          1 MOL1         0.0783
      10    O3      18.511554   13.313363   23.032492 O.3        1 MOL1        -0.5519
      11    H5      19.428621   13.494790   23.358117 H          1 MOL1         0.3769
      12    C4      19.122497   14.398979   20.929812 C.3        1 MOL1         0.1018
      13    H6      19.180745   13.387887   20.505365 H          1 MOL1         0.0783
      14    C5      18.646663   15.376868   19.824402 C.3        1 MOL1         0.1043
      15    H7      18.766328   16.404753   20.187967 H          1 MOL1         0.0783
      16    O4      17.255802   15.115714   19.516622 O.3        1 MOL1        -0.3740
      17    C6      19.444874   15.239696   18.508990 C.3        1 MOL1         0.0138
      18    H8      20.506051   15.434299   18.708403 H          1 MOL1         0.0794
      19    H9      19.096796   16.007054   17.804751 H          1 MOL1         0.0794
      20    O5      19.281842   13.935899   17.943187 O.3        1 MOL1        -0.5486
      21    H10     18.311949   13.789414   17.877191 H          1 MOL1         0.3769
      22    C7      14.674557   20.304294   21.246657 C.3        1 MOL1         0.2972
      23    H11     14.009768   21.176990   21.208986 H          1 MOL1         0.0751
      24    O6      16.062241   20.698172   21.311512 O.3        1 MOL1        -0.3740
      25    C8      14.334261   19.394276   22.456216 C.3        1 MOL1         0.1003
      26    H12     13.318104   19.011819   22.296152 H          1 MOL1         0.0783
      27    O7      14.351176   20.140040   23.682223 O.3        1 MOL1        -0.5519
      28    H13     15.285718   20.429265   23.831296 H          1 MOL1         0.3769
      29    C9      15.294176   18.173992   22.495017 C.3        1 MOL1         0.1053
      30    H14     16.309125   18.535391   22.713255 H          1 MOL1         0.0783
      31    O8      14.881821   17.233144   23.495014 O.3        1 MOL1        -0.5519
      32    H15     15.378787   16.398031   23.317896 H          1 MOL1         0.3769
      33    C10     15.317317   17.440469   21.129376 C.3        1 MOL1         0.1018
      34    H16     14.396398   16.847117   21.053149 H          1 MOL1         0.0783
      35    C11     15.420464   18.398473   19.906892 C.3        1 MOL1         0.1043
      36    H17     16.445076   18.783878   19.851594 H          1 MOL1         0.0783
      37    O9      14.497579   19.504509   20.059719 O.3        1 MOL1        -0.3740
      38    C12     15.102056   17.718312   18.556329 C.3        1 MOL1         0.0138
      39    H18     15.859211   16.951828   18.349386 H          1 MOL1         0.0794
      40    H19     15.176251   18.469367   17.758561 H          1 MOL1         0.0794
      41    O10     13.795916   17.134074   18.566173 O.3        1 MOL1        -0.5486
      42    H20     13.170923   17.863094   18.776650 H          1 MOL1         0.3769
      43    C13     18.563705   23.937178   21.935705 C.3        1 MOL1         0.2972
      44    H21     19.013024   24.908453   22.176678 H          1 MOL1         0.0751
      45    O11     19.470729   23.102028   21.182499 O.3        1 MOL1        -0.3740
      46    C14     18.146750   23.194350   23.232533 C.3        1 MOL1         0.1003
      47    H22     17.387244   23.810369   23.730853 H          1 MOL1         0.0783
      48    O12     19.273238   23.051148   24.114042 O.3        1 MOL1        -0.5519
      49    H23     19.260134   22.129165   24.484887 H          1 MOL1         0.3769
      50    C15     17.490806   21.831182   22.890374 C.3        1 MOL1         0.1053
      51    H24     18.254204   21.185682   22.442723 H          1 MOL1         0.0783
      52    O13     16.974042   21.223314   24.079898 O.3        1 MOL1        -0.5519
      53    H25     17.760302   20.850403   24.559249 H          1 MOL1         0.3769
      54    C16     16.343355   22.001747   21.860314 C.3        1 MOL1         0.1018
      55    H26     15.471315   22.423070   22.378006 H          1 MOL1         0.0783
      56    C17     16.740452   22.913169   20.664848 C.3        1 MOL1         0.1043
      57    H27     17.444595   22.359209   20.029648 H          1 MOL1         0.0783
      58    O14     17.370870   24.126553   21.145053 O.3        1 MOL1        -0.3740
      59    C18     15.539999   23.323271   19.782718 C.3        1 MOL1         0.0138
      60    H28     15.113425   22.424253   19.318227 H          1 MOL1         0.0794
      61    H29     15.902316   23.968888   18.971571 H          1 MOL1         0.0794
      62    O15     14.541847   24.002881   20.549991 O.3        1 MOL1        -0.5486
      63    H30     14.990988   24.773017   20.964469 H          1 MOL1         0.3769
      64    C19     23.521775   22.719520   20.422076 C.3        1 MOL1         0.2972
      65    H31     24.565290   22.814086   20.095400 H          1 MOL1         0.0751
      66    O16     23.221134   21.363476   20.823914 O.3        1 MOL1        -0.3740
      67    C20     23.203788   23.718375   21.566963 C.3        1 MOL1         0.1003
      68    H32     23.324392   24.726949   21.151336 H          1 MOL1         0.0783
      69    O17     24.118675   23.570694   22.663130 O.3        1 MOL1        -0.5519
      70    H33     23.848084   22.747667   23.140992 H          1 MOL1         0.3769
      71    C21     21.725917   23.573731   22.020299 C.3        1 MOL1         0.1053
      72    H34     21.604328   22.584925   22.483332 H          1 MOL1         0.0783
      73    O18     21.411941   24.597934   22.970841 O.3        1 MOL1        -0.5519
      74    H35     20.712421   24.210042   23.551997 H          1 MOL1         0.3769
      75    C22     20.749475   23.661054   20.809761 C.3        1 MOL1         0.1018
      76    H36     20.645531   24.708679   20.497822 H          1 MOL1         0.0783
      77    C23     21.226147   22.825348   19.590261 C.3        1 MOL1         0.1043
      78    H37     21.053097   21.764559   19.806012 H          1 MOL1         0.0783
      79    O19     22.634379   23.060106   19.336951 O.3        1 MOL1        -0.3740
      80    C24     20.452672   23.188985   18.305804 C.3        1 MOL1         0.0138
      81    H38     20.660168   24.234709   18.042461 H          1 MOL1         0.0794
      82    H39     19.374548   23.098310   18.494184 H          1 MOL1         0.0794
      83    O20     20.836273   22.318166   17.240081 O.3        1 MOL1        -0.5486
      84    H40     21.819162   22.297544   17.248394 H          1 MOL1         0.3769
      85    C25     24.895817   17.871498   22.339172 C.3        1 MOL1         0.2972
      86    H41     25.546232   17.106791   22.782270 H          1 MOL1         0.0751
      87    O21     23.709960   17.289677   21.758429 O.3        1 MOL1        -0.3740
      88    C26     24.482372   18.913564   23.410773 C.3        1 MOL1         0.1003
      89    H42     25.401371   19.398837   23.763882 H          1 MOL1         0.0783
      90    O22     23.845670   18.269114   24.525113 O.3        1 MOL1        -0.5519
      91    H43     23.036447   18.798670   24.754428 H          1 MOL1         0.3769
      92    C27     23.583577   20.012365   22.788893 C.3        1 MOL1         0.1053
      93    H44     22.636398   19.549159   22.482021 H          1 MOL1         0.0783
      94    O23     23.339398   21.039059   23.758446 O.3        1 MOL1        -0.5519
      95    H45     22.618875   20.691252   24.348334 H          1 MOL1         0.3769
      96    C28     24.246516   20.632918   21.530760 C.3        1 MOL1         0.1018
      97    H46     25.067526   21.287039   21.851385 H          1 MOL1         0.0783
      98    C29     24.797241   19.550905   20.560077 C.3        1 MOL1         0.1043
      99    H47     23.944906   19.046294   20.086301 H          1 MOL1         0.0783
     100    O24     25.592234   18.583381   21.292778 O.3        1 MOL1        -0.3740
     101    C30     25.680220   20.130926   19.432915 C.3        1 MOL1         0.0138
     102    H48     25.067167   20.786759   18.800563 H          1 MOL1         0.0794
     103    H49     26.033327   19.304852   18.801212 H          1 MOL1         0.0794
     104    O25     26.790980   20.857762   19.966250 O.3        1 MOL1        -0.5486
     105    H50     27.273440   20.231716   20.550929 H          1 MOL1         0.3769
     106    C31     21.442053   13.864136   21.485400 C.3        1 MOL1         0.2972
     107    H51     21.039075   12.847950   21.390262 H          1 MOL1         0.0751
     108    O26     20.403667   14.862063   21.396407 O.3        1 MOL1        -0.3740
     109    C32     22.172246   14.015376   22.840369 C.3        1 MOL1         0.1003
     110    H52     23.002954   13.297628   22.844097 H          1 MOL1         0.0783
     111    O27     21.296779   13.724806   23.938953 O.3        1 MOL1        -0.5519
     112    H53     21.799626   14.007380   24.735700 H          1 MOL1         0.3769
     113    C33     22.771581   15.431803   22.998783 C.3        1 MOL1         0.1053
     114    H54     21.939755   16.142402   23.101351 H          1 MOL1         0.0783
     115    O28     23.583060   15.450712   24.178485 O.3        1 MOL1        -0.5519
     116    H55     23.734602   16.404278   24.393340 H          1 MOL1         0.3769
     117    C34     23.611069   15.850435   21.759417 C.3        1 MOL1         0.1018
     118    H56     24.599461   15.374136   21.801911 H          1 MOL1         0.0783
     119    C35     22.929720   15.477811   20.414253 C.3        1 MOL1         0.1043
     120    H57     22.104605   16.179092   20.249927 H          1 MOL1         0.0783
     121    O29     22.411725   14.124726   20.450750 O.3        1 MOL1        -0.3740
     122    C36     23.885860   15.586211   19.206299 C.3        1 MOL1         0.0138
     123    H58     24.274409   16.611829   19.147421 H          1 MOL1         0.0794
     124    H59     23.315901   15.395174   18.287222 H          1 MOL1         0.0794
     125    O30     24.965631   14.654936   19.322284 O.3        1 MOL1        -0.5486
     126    H60     24.550262   13.774004   19.457968 H          1 MOL1         0.3769
     127    C1      20.209888   19.487931   24.755228 C.2        1 MOL1         0.6132
     128    O1      21.398220   19.526190   25.011655 O.co2      1 MOL1        -0.6749
     129    O2      19.438649   20.394696   25.006308 O.co2      1 MOL1        -0.6749
     130    C2      19.653179   18.230431   24.095140 C.3        1 MOL1        -0.1955
     131    H1      18.710411   17.994285   24.601682 H          1 MOL1         0.0733
     132    H2      20.327687   17.394273   24.310169 H          1 MOL1         0.0733
     133    C3      19.402768   18.325497   22.597429 C.2        1 MOL1        -0.1395
     134    H3      18.771038   17.535600   22.201165 H          1 MOL1         0.0816
     135    C4      19.847559   19.284519   21.778018 C.2        1 MOL1        -0.1394
     136    H4      20.463996   20.101180   22.150572 H          1 MOL1         0.0816
     137    C5      19.498940   19.362898   20.308455 C.3        1 MOL1        -0.1826
     138    H5      18.631740   18.729836   20.090496 H          1 MOL1         0.0736
     139    H6      19.204978   20.389316   20.054216 H          1 MOL1         0.0736
     140    C6      20.677241   18.922935   19.420234 C.3        1 MOL1        -0.2882
     141    H7      20.431432   19.049302   18.358162 H          1 MOL1         0.0749
     142    H8      21.574982   19.514310   19.636078 H          1 MOL1         0.0749
     143    H9      20.913889   17.868934   19.594080 H          1 MOL1         0.0749
@<TRIPOS>BOND
    1     1     2    1
    2     1     3    1
    3     1     4    1
    4     4     5    1
    5     4     6    1
    6     6     7    1
    7     4     8    1
    8     8     9    1
    9     8    10    1
   10    10    11    1
   11     8    12    1
   12    12    13    1
   13    12    14    1
   14    14    15    1
   15     1    16    1
   16    14    16    1
   17    14    17    1
   18    17    18    1
   19    17    19    1
   20    17    20    1
   21    20    21    1
   22    22    23    1
   23    22    24    1
   24    22    25    1
   25    25    26    1
   26    25    27    1
   27    27    28    1
   28    25    29    1
   29    29    30    1
   30    29    31    1
   31    31    32    1
   32     3    33    1
   33    29    33    1
   34    33    34    1
   35    33    35    1
   36    35    36    1
   37    22    37    1
   38    35    37    1
   39    35    38    1
   40    38    39    1
   41    38    40    1
   42    38    41    1
   43    41    42    1
   44    43    44    1
   45    43    45    1
   46    43    46    1
   47    46    47    1
   48    46    48    1
   49    48    49    1
   50    46    50    1
   51    50    51    1
   52    50    52    1
   53    52    53    1
   54    24    54    1
   55    50    54    1
   56    54    55    1
   57    54    56    1
   58    56    57    1
   59    43    58    1
   60    56    58    1
   61    56    59    1
   62    59    60    1
   63    59    61    1
   64    59    62    1
   65    62    63    1
   66    64    65    1
   67    64    66    1
   68    64    67    1
   69    67    68    1
   70    67    69    1
   71    69    70    1
   72    67    71    1
   73    71    72    1
   74    71    73    1
   75    73    74    1
   76    45    75    1
   77    71    75    1
   78    75    76    1
   79    75    77    1
   80    77    78    1
   81    64    79    1
   82    77    79    1
   83    77    80    1
   84    80    81    1
   85    80    82    1
   86    80    83    1
   87    83    84    1
   88    85    86    1
   89    85    87    1
   90    85    88    1
   91    88    89    1
   92    88    90    1
   93    90    91    1
   94    88    92    1
   95    92    93    1
   96    92    94    1
   97    94    95    1
   98    66    96    1
   99    92    96    1
  100    96    97    1
  101    96    98    1
  102    98    99    1
  103    85   100    1
  104    98   100    1
  105    98   101    1
  106   101   102    1
  107   101   103    1
  108   101   104    1
  109   104   105    1
  110   106   107    1
  111    12   108    1
  112   106   108    1
  113   106   109    1
  114   109   110    1
  115   109   111    1
  116   111   112    1
  117   109   113    1
  118   113   114    1
  119   113   115    1
  120   115   116    1
  121    87   117    1
  122   113   117    1
  123   117   118    1
  124   117   119    1
  125   119   120    1
  126   106   121    1
  127   119   121    1
  128   119   122    1
  129   122   123    1
  130   122   124    1
  131   122   125    1
  132   125   126    1
  133   127   128    1
  134   127   129    2
  135   127   130    1
  136   130   131    1
  137   130   132    1
  138   130   133    1
  139   133   134    1
  140   133   135    2
  141   135   136    1
  142   135   137    1
  143   137   138    1
  144   137   139    1
  145   137   140    1
  146   140   141    1
  147   140   142    1
  148   140   143    1
@<TRIPOS>SUBSTRUCTURE
       1 MOL1            1 RESIDUE      1      MOL     
       2 MOL1          143 RESIDUE      1      MOL     
@<SCITEGIC>MOL_PROPERTY
VM2 Rank
SciTegic.value.IntegerValue
4

@<SCITEGIC>MOL_PROPERTY
Conf_Id
SciTegic.value.IntegerValue
23335

@<SCITEGIC>MOL_PROPERTY
Probability
SciTegic.value.DoubleValue
1.05

@<SCITEGIC>MOL_PROPERTY
Sum Probability
SciTegic.value.DoubleValue
5.13

@<SCITEGIC>MOL_PROPERTY
Delta G
SciTegic.value.DoubleValue
0.211

@<SCITEGIC>MOL_PROPERTY
G
SciTegic.value.DoubleValue
490.476

@<SCITEGIC>MOL_PROPERTY
E
SciTegic.value.DoubleValue
305.211

@<SCITEGIC>MOL_PROPERTY
-TS
SciTegic.value.DoubleValue
185.265

@<SCITEGIC>MOL_PROPERTY
U+W
SciTegic.value.DoubleValue
179.123

@<SCITEGIC>MOL_PROPERTY
U
SciTegic.value.DoubleValue
240.711

@<SCITEGIC>MOL_PROPERTY
W
SciTegic.value.DoubleValue
-61.588

@<SCITEGIC>MOL_PROPERTY
W(PB)
SciTegic.value.DoubleValue
-67.586

@<SCITEGIC>MOL_PROPERTY
W(SA)
SciTegic.value.DoubleValue
5.998

@<SCITEGIC>MOL_PROPERTY
Valence
SciTegic.value.DoubleValue
158.577

@<SCITEGIC>MOL_PROPERTY
Coulomb
SciTegic.value.DoubleValue
102.342

@<SCITEGIC>MOL_PROPERTY
VdW
SciTegic.value.DoubleValue
-20.207

@<SCITEGIC>MOL_PROPERTY
VdW6
SciTegic.value.DoubleValue
-180.856

@<SCITEGIC>MOL_PROPERTY
VdW12
SciTegic.value.DoubleValue
160.649

@<SCITEGIC>MOL_PROPERTY
Bond
SciTegic.value.DoubleValue
5.107

@<SCITEGIC>MOL_PROPERTY
Angle
SciTegic.value.DoubleValue
12.536

@<SCITEGIC>MOL_PROPERTY
Pdih
SciTegic.value.DoubleValue
140.926

@<SCITEGIC>MOL_PROPERTY
Idih
SciTegic.value.DoubleValue
0.008

@<SCITEGIC>MOL_PROPERTY
Tether
SciTegic.value.DoubleValue
0.000

@<TRIPOS>MOLECULE
CD_guest-s20_vm2_rndm.mol2 : vm2 host+ligand conformer 5
         143         148           2
SMALL
USER_CHARGES
 
@<TRIPOS>ATOM
       1    C1      16.371324   15.266032   20.451805 C.3        1 MOL1         0.2972
       2    H1      15.365598   15.113866   20.038991 H          1 MOL1         0.0751
       3    O1      16.517403   16.580407   21.021782 O.3        1 MOL1        -0.3740
       4    C2      16.670755   14.225541   21.563304 C.3        1 MOL1         0.1003
       5    H2      16.571969   13.228449   21.115695 H          1 MOL1         0.0783
       6    O2      15.713935   14.359969   22.628385 O.3        1 MOL1        -0.5519
       7    H3      15.726369   15.306055   22.918145 H          1 MOL1         0.3769
       8    C3      18.127555   14.368928   22.086200 C.3        1 MOL1         0.1053
       9    H4      18.195533   15.314195   22.641777 H          1 MOL1         0.0783
      10    O3      18.463722   13.274094   22.948023 O.3        1 MOL1        -0.5519
      11    H5      19.337972   13.494414   23.354865 H          1 MOL1         0.3769
      12    C4      19.146922   14.419100   20.916833 C.3        1 MOL1         0.1018
      13    H6      19.244630   13.417727   20.476977 H          1 MOL1         0.0783
      14    C5      18.720337   15.409274   19.803160 C.3        1 MOL1         0.1043
      15    H7      18.791341   16.431134   20.196195 H          1 MOL1         0.0783
      16    O4      17.357655   15.123158   19.409710 O.3        1 MOL1        -0.3740
      17    C6      19.600612   15.325638   18.536245 C.3        1 MOL1         0.0138
      18    H8      20.630365   15.597014   18.797306 H          1 MOL1         0.0794
      19    H9      19.242840   16.067164   17.809617 H          1 MOL1         0.0794
      20    O5      19.566651   14.013997   17.965571 O.3        1 MOL1        -0.5486
      21    H10     18.617875   13.807301   17.814449 H          1 MOL1         0.3769
      22    C7      14.648536   20.212556   21.372027 C.3        1 MOL1         0.2972
      23    H11     13.987677   21.087789   21.418826 H          1 MOL1         0.0751
      24    O6      16.041183   20.596323   21.301581 O.3        1 MOL1        -0.3740
      25    C8      14.425581   19.271394   22.583904 C.3        1 MOL1         0.1003
      26    H12     13.411724   18.860732   22.490522 H          1 MOL1         0.0783
      27    O7      14.518586   19.964877   23.835334 O.3        1 MOL1        -0.5519
      28    H13     15.420638   20.371463   23.876040 H          1 MOL1         0.3769
      29    C9      15.420024   18.087367   22.517092 C.3        1 MOL1         0.1053
      30    H14     16.441063   18.481656   22.622523 H          1 MOL1         0.0783
      31    O8      15.143715   17.166801   23.578582 O.3        1 MOL1        -0.5519
      32    H15     15.027392   17.726901   24.377915 H          1 MOL1         0.3769
      33    C10     15.312091   17.355548   21.154537 C.3        1 MOL1         0.1018
      34    H16     14.420047   16.715724   21.184096 H          1 MOL1         0.0783
      35    C11     15.234225   18.320130   19.931184 C.3        1 MOL1         0.1043
      36    H17     16.237257   18.714489   19.736945 H          1 MOL1         0.0783
      37    O9      14.338979   19.427727   20.201282 O.3        1 MOL1        -0.3740
      38    C12     14.750901   17.635449   18.633100 C.3        1 MOL1         0.0138
      39    H18     15.488782   16.882587   18.326804 H          1 MOL1         0.0794
      40    H19     14.705017   18.387669   17.834245 H          1 MOL1         0.0794
      41    O10     13.469054   17.026712   18.814875 O.3        1 MOL1        -0.5486
      42    H20     12.860790   17.744957   19.098777 H          1 MOL1         0.3769
      43    C13     18.610088   23.837741   21.772411 C.3        1 MOL1         0.2972
      44    H21     19.049894   24.820264   21.982541 H          1 MOL1         0.0751
      45    O11     19.519646   22.997228   21.027269 O.3        1 MOL1        -0.3740
      46    C14     18.223384   23.121059   23.093639 C.3        1 MOL1         0.1003
      47    H22     17.468275   23.743583   23.590682 H          1 MOL1         0.0783
      48    O12     19.366908   23.014880   23.957481 O.3        1 MOL1        -0.5519
      49    H23     19.293668   22.172941   24.478435 H          1 MOL1         0.3769
      50    C15     17.567265   21.745057   22.798295 C.3        1 MOL1         0.1053
      51    H24     18.316497   21.084800   22.342493 H          1 MOL1         0.0783
      52    O13     17.077132   21.172047   24.015560 O.3        1 MOL1        -0.5519
      53    H25     17.871123   20.873519   24.531575 H          1 MOL1         0.3769
      54    C16     16.385510   21.904571   21.803670 C.3        1 MOL1         0.1018
      55    H26     15.544549   22.367377   22.337070 H          1 MOL1         0.0783
      56    C17     16.761861   22.771933   20.570295 C.3        1 MOL1         0.1043
      57    H27     17.452961   22.197484   19.939934 H          1 MOL1         0.0783
      58    O14     17.401705   23.998824   20.998716 O.3        1 MOL1        -0.3740
      59    C18     15.542434   23.155176   19.702144 C.3        1 MOL1         0.0138
      60    H28     15.097445   22.241000   19.286859 H          1 MOL1         0.0794
      61    H29     15.888715   23.763959   18.856234 H          1 MOL1         0.0794
      62    O15     14.569131   23.873862   20.466090 O.3        1 MOL1        -0.5486
      63    H30     15.035824   24.654683   20.839127 H          1 MOL1         0.3769
      64    C19     23.595939   22.623688   20.363444 C.3        1 MOL1         0.2972
      65    H31     24.644509   22.711036   20.051324 H          1 MOL1         0.0751
      66    O16     23.302807   21.291830   20.842345 O.3        1 MOL1        -0.3740
      67    C20     23.245996   23.682853   21.441806 C.3        1 MOL1         0.1003
      68    H32     23.360685   24.667517   20.970832 H          1 MOL1         0.0783
      69    O17     24.145224   23.608516   22.558518 O.3        1 MOL1        -0.5519
      70    H33     23.882572   22.806673   23.075326 H          1 MOL1         0.3769
      71    C21     21.763025   23.543819   21.879908 C.3        1 MOL1         0.1053
      72    H34     21.647740   22.578478   22.391837 H          1 MOL1         0.0783
      73    O18     21.428228   24.611112   22.774176 O.3        1 MOL1        -0.5519
      74    H35     20.745796   24.233439   23.381623 H          1 MOL1         0.3769
      75    C22     20.801019   23.556509   20.653049 C.3        1 MOL1         0.1018
      76    H36     20.686578   24.586579   20.290881 H          1 MOL1         0.0783
      77    C23     21.313593   22.667832   19.484640 C.3        1 MOL1         0.1043
      78    H37     21.149326   21.619311   19.758271 H          1 MOL1         0.0783
      79    O19     22.726752   22.887286   19.242951 O.3        1 MOL1        -0.3740
      80    C24     20.562972   22.925772   18.159622 C.3        1 MOL1         0.0138
      81    H38     19.490785   22.744838   18.314118 H          1 MOL1         0.0794
      82    H39     20.914059   22.204009   17.410151 H          1 MOL1         0.0794
      83    O20     20.777897   24.263365   17.699184 O.3        1 MOL1        -0.5486
      84    H40     21.753021   24.385435   17.667066 H          1 MOL1         0.3769
      85    C25     24.924206   17.871263   22.515872 C.3        1 MOL1         0.2972
      86    H41     25.544298   17.101849   22.992925 H          1 MOL1         0.0751
      87    O21     23.729804   17.308775   21.933498 O.3        1 MOL1        -0.3740
      88    C26     24.525170   18.956409   23.548494 C.3        1 MOL1         0.1003
      89    H42     25.450327   19.430939   23.899987 H          1 MOL1         0.0783
      90    O22     23.855720   18.357633   24.669804 O.3        1 MOL1        -0.5519
      91    H43     23.071457   18.926785   24.891192 H          1 MOL1         0.3769
      92    C27     23.659428   20.053156   22.879039 C.3        1 MOL1         0.1053
      93    H44     22.707475   19.596288   22.589481 H          1 MOL1         0.0783
      94    O23     23.426952   21.122362   23.804666 O.3        1 MOL1        -0.5519
      95    H45     22.702723   20.809104   24.409714 H          1 MOL1         0.3769
      96    C28     24.330371   20.609421   21.594041 C.3        1 MOL1         0.1018
      97    H46     25.143724   21.286289   21.885788 H          1 MOL1         0.0783
      98    C29     24.892256   19.485838   20.677224 C.3        1 MOL1         0.1043
      99    H47     24.044089   18.977921   20.198688 H          1 MOL1         0.0783
     100    O24     25.655061   18.530717   21.459442 O.3        1 MOL1        -0.3740
     101    C30     25.809623   20.014269   19.552190 C.3        1 MOL1         0.0138
     102    H48     25.221731   20.657216   18.883785 H          1 MOL1         0.0794
     103    H49     26.164104   19.162201   18.956842 H          1 MOL1         0.0794
     104    O25     26.919118   20.741896   20.086881 O.3        1 MOL1        -0.5486
     105    H50     27.377031   20.129623   20.704973 H          1 MOL1         0.3769
     106    C31     21.431236   13.898113   21.615112 C.3        1 MOL1         0.2972
     107    H51     21.035299   12.879115   21.520089 H          1 MOL1         0.0751
     108    O26     20.395850   14.889439   21.458208 O.3        1 MOL1        -0.3740
     109    C32     22.095081   14.077502   23.001065 C.3        1 MOL1         0.1003
     110    H52     22.917785   13.353289   23.062963 H          1 MOL1         0.0783
     111    O27     21.163779   13.819773   24.061349 O.3        1 MOL1        -0.5519
     112    H53     21.626691   14.121411   24.874938 H          1 MOL1         0.3769
     113    C33     22.699928   15.492521   23.155475 C.3        1 MOL1         0.1053
     114    H54     21.871921   16.212405   23.208243 H          1 MOL1         0.0783
     115    O28     23.462077   15.534079   24.366866 O.3        1 MOL1        -0.5519
     116    H55     23.631726   16.490762   24.553837 H          1 MOL1         0.3769
     117    C34     23.595751   15.874099   21.944282 C.3        1 MOL1         0.1018
     118    H56     24.569142   15.372777   22.027766 H          1 MOL1         0.0783
     119    C35     22.957394   15.500274   20.580036 C.3        1 MOL1         0.1043
     120    H57     22.146256   16.207480   20.372067 H          1 MOL1         0.0783
     121    O29     22.446868   14.144624   20.621600 O.3        1 MOL1        -0.3740
     122    C36     23.973093   15.579429   19.422142 C.3        1 MOL1         0.0138
     123    H58     24.752889   14.820765   19.571722 H          1 MOL1         0.0794
     124    H59     24.458395   16.564582   19.432137 H          1 MOL1         0.0794
     125    O30     23.306974   15.376426   18.173986 O.3        1 MOL1        -0.5486
     126    H60     22.763965   14.562402   18.279453 H          1 MOL1         0.3769
     127    C1      20.265775   19.630036   24.975370 C.2        1 MOL1         0.6132
     128    O1      19.473255   20.521782   25.212015 O.co2      1 MOL1        -0.6749
     129    O2      21.462711   19.721596   25.174819 O.co2      1 MOL1        -0.6749
     130    C2      19.725042   18.331373   24.385584 C.3        1 MOL1        -0.1955
     131    H1      18.667800   18.237144   24.659301 H          1 MOL1         0.0733
     132    H2      20.242989   17.507404   24.889567 H          1 MOL1         0.0733
     133    C3      19.882255   18.176797   22.880824 C.2        1 MOL1        -0.1395
     134    H3      19.684633   17.173820   22.511838 H          1 MOL1         0.0816
     135    C4      20.257959   19.131141   22.022920 C.2        1 MOL1        -0.1394
     136    H4      20.467032   20.144446   22.363675 H          1 MOL1         0.0816
     137    C5      20.466601   18.895190   20.545009 C.3        1 MOL1        -0.1826
     138    H5      21.378182   19.405210   20.210180 H          1 MOL1         0.0736
     139    H6      20.623332   17.828226   20.352129 H          1 MOL1         0.0736
     140    C6      19.256049   19.384027   19.731421 C.3        1 MOL1        -0.2882
     141    H7      19.409258   19.215701   18.658163 H          1 MOL1         0.0749
     142    H8      18.356616   18.842699   20.042205 H          1 MOL1         0.0749
     143    H9      19.079795   20.453668   19.894432 H          1 MOL1         0.0749
@<TRIPOS>BOND
    1     1     2    1
    2     1     3    1
    3     1     4    1
    4     4     5    1
    5     4     6    1
    6     6     7    1
    7     4     8    1
    8     8     9    1
    9     8    10    1
   10    10    11    1
   11     8    12    1
   12    12    13    1
   13    12    14    1
   14    14    15    1
   15     1    16    1
   16    14    16    1
   17    14    17    1
   18    17    18    1
   19    17    19    1
   20    17    20    1
   21    20    21    1
   22    22    23    1
   23    22    24    1
   24    22    25    1
   25    25    26    1
   26    25    27    1
   27    27    28    1
   28    25    29    1
   29    29    30    1
   30    29    31    1
   31    31    32    1
   32     3    33    1
   33    29    33    1
   34    33    34    1
   35    33    35    1
   36    35    36    1
   37    22    37    1
   38    35    37    1
   39    35    38    1
   40    38    39    1
   41    38    40    1
   42    38    41    1
   43    41    42    1
   44    43    44    1
   45    43    45    1
   46    43    46    1
   47    46    47    1
   48    46    48    1
   49    48    49    1
   50    46    50    1
   51    50    51    1
   52    50    52    1
   53    52    53    1
   54    24    54    1
   55    50    54    1
   56    54    55    1
   57    54    56    1
   58    56    57    1
   59    43    58    1
   60    56    58    1
   61    56    59    1
   62    59    60    1
   63    59    61    1
   64    59    62    1
   65    62    63    1
   66    64    65    1
   67    64    66    1
   68    64    67    1
   69    67    68    1
   70    67    69    1
   71    69    70    1
   72    67    71    1
   73    71    72    1
   74    71    73    1
   75    73    74    1
   76    45    75    1
   77    71    75    1
   78    75    76    1
   79    75    77    1
   80    77    78    1
   81    64    79    1
   82    77    79    1
   83    77    80    1
   84    80    81    1
   85    80    82    1
   86    80    83    1
   87    83    84    1
   88    85    86    1
   89    85    87    1
   90    85    88    1
   91    88    89    1
   92    88    90    1
   93    90    91    1
   94    88    92    1
   95    92    93    1
   96    92    94    1
   97    94    95    1
   98    66    96    1
   99    92    96    1
  100    96    97    1
  101    96    98    1
  102    98    99    1
  103    85   100    1
  104    98   100    1
  105    98   101    1
  106   101   102    1
  107   101   103    1
  108   101   104    1
  109   104   105    1
  110   106   107    1
  111    12   108    1
  112   106   108    1
  113   106   109    1
  114   109   110    1
  115   109   111    1
  116   111   112    1
  117   109   113    1
  118   113   114    1
  119   113   115    1
  120   115   116    1
  121    87   117    1
  122   113   117    1
  123   117   118    1
  124   117   119    1
  125   119   120    1
  126   106   121    1
  127   119   121    1
  128   119   122    1
  129   122   123    1
  130   122   124    1
  131   122   125    1
  132   125   126    1
  133   127   128    1
  134   127   129    2
  135   127   130    1
  136   130   131    1
  137   130   132    1
  138   130   133    1
  139   133   134    1
  140   133   135    2
  141   135   136    1
  142   135   137    1
  143   137   138    1
  144   137   139    1
  145   137   140    1
  146   140   141    1
  147   140   142    1
  148   140   143    1
@<TRIPOS>SUBSTRUCTURE
       1 MOL1            1 RESIDUE      1      MOL     
       2 MOL1          143 RESIDUE      1      MOL     
@<SCITEGIC>MOL_PROPERTY
VM2 Rank
SciTegic.value.IntegerValue
5

@<SCITEGIC>MOL_PROPERTY
Conf_Id
SciTegic.value.IntegerValue
21735

@<SCITEGIC>MOL_PROPERTY
Probability
SciTegic.value.DoubleValue
0.99

@<SCITEGIC>MOL_PROPERTY
Sum Probability
SciTegic.value.DoubleValue
6.13

@<SCITEGIC>MOL_PROPERTY
Delta G
SciTegic.value.DoubleValue
0.246

@<SCITEGIC>MOL_PROPERTY
G
SciTegic.value.DoubleValue
490.511

@<SCITEGIC>MOL_PROPERTY
E
SciTegic.value.DoubleValue
304.827

@<SCITEGIC>MOL_PROPERTY
-TS
SciTegic.value.DoubleValue
185.684

@<SCITEGIC>MOL_PROPERTY
U+W
SciTegic.value.DoubleValue
178.739

@<SCITEGIC>MOL_PROPERTY
U
SciTegic.value.DoubleValue
238.714

@<SCITEGIC>MOL_PROPERTY
W
SciTegic.value.DoubleValue
-59.975

@<SCITEGIC>MOL_PROPERTY
W(PB)
SciTegic.value.DoubleValue
-66.005

@<SCITEGIC>MOL_PROPERTY
W(SA)
SciTegic.value.DoubleValue
6.030

@<SCITEGIC>MOL_PROPERTY
Valence
SciTegic.value.DoubleValue
158.379

@<SCITEGIC>MOL_PROPERTY
Coulomb
SciTegic.value.DoubleValue
100.400

@<SCITEGIC>MOL_PROPERTY
VdW
SciTegic.value.DoubleValue
-20.065

@<SCITEGIC>MOL_PROPERTY
VdW6
SciTegic.value.DoubleValue
-182.430

@<SCITEGIC>MOL_PROPERTY
VdW12
SciTegic.value.DoubleValue
162.365

@<SCITEGIC>MOL_PROPERTY
Bond
SciTegic.value.DoubleValue
5.244

@<SCITEGIC>MOL_PROPERTY
Angle
SciTegic.value.DoubleValue
12.729

@<SCITEGIC>MOL_PROPERTY
Pdih
SciTegic.value.DoubleValue
140.401

@<SCITEGIC>MOL_PROPERTY
Idih
SciTegic.value.DoubleValue
0.004

@<SCITEGIC>MOL_PROPERTY
Tether
SciTegic.value.DoubleValue
0.000

@<TRIPOS>MOLECULE
CD_guest-s20_vm2_rndm.mol2 : vm2 host+ligand conformer 6
         143         148           2
SMALL
USER_CHARGES
 
@<TRIPOS>ATOM
       1    C1      16.333972   15.266289   20.455370 C.3        1 MOL1         0.2972
       2    H1      15.322237   15.114984   20.057193 H          1 MOL1         0.0751
       3    O1      16.495356   16.586423   21.008028 O.3        1 MOL1        -0.3740
       4    C2      16.644586   14.235311   21.572027 C.3        1 MOL1         0.1003
       5    H2      16.541141   13.234946   21.132852 H          1 MOL1         0.0783
       6    O2      15.700168   14.374871   22.647041 O.3        1 MOL1        -0.5519
       7    H3      15.717804   15.321681   22.934728 H          1 MOL1         0.3769
       8    C3      18.107864   14.383388   22.074469 C.3        1 MOL1         0.1053
       9    H4      18.183745   15.332427   22.622504 H          1 MOL1         0.0783
      10    O3      18.455577   13.293055   22.937257 O.3        1 MOL1        -0.5519
      11    H5      19.338945   13.510585   23.325603 H          1 MOL1         0.3769
      12    C4      19.110648   14.423002   20.890252 C.3        1 MOL1         0.1018
      13    H6      19.199079   13.417671   20.457071 H          1 MOL1         0.0783
      14    C5      18.674572   15.398888   19.769028 C.3        1 MOL1         0.1043
      15    H7      18.764525   16.430564   20.132489 H          1 MOL1         0.0783
      16    O4      17.306143   15.102232   19.403077 O.3        1 MOL1        -0.3740
      17    C6      19.534852   15.244134   18.497364 C.3        1 MOL1         0.0138
      18    H8      19.412354   14.228142   18.099080 H          1 MOL1         0.0794
      19    H9      20.593075   15.375928   18.754448 H          1 MOL1         0.0794
      20    O5      19.147668   16.213456   17.522402 O.3        1 MOL1        -0.5486
      21    H10     18.168945   16.158332   17.460177 H          1 MOL1         0.3769
      22    C7      14.629573   20.217444   21.411148 C.3        1 MOL1         0.2972
      23    H11     13.967753   21.091059   21.472304 H          1 MOL1         0.0751
      24    O6      16.020470   20.604811   21.328012 O.3        1 MOL1        -0.3740
      25    C8      14.422228   19.266609   22.618021 C.3        1 MOL1         0.1003
      26    H12     13.408850   18.853231   22.531649 H          1 MOL1         0.0783
      27    O7      14.524833   19.950501   23.873953 O.3        1 MOL1        -0.5519
      28    H13     15.429166   20.352107   23.912622 H          1 MOL1         0.3769
      29    C9      15.419790   18.086507   22.531125 C.3        1 MOL1         0.1053
      30    H14     16.441271   18.482765   22.624356 H          1 MOL1         0.0783
      31    O8      15.159971   17.160786   23.592103 O.3        1 MOL1        -0.5519
      32    H15     15.052175   17.717437   24.395080 H          1 MOL1         0.3769
      33    C10     15.293550   17.362787   21.165556 C.3        1 MOL1         0.1018
      34    H16     14.400762   16.724433   21.202996 H          1 MOL1         0.0783
      35    C11     15.199686   18.335261   19.949586 C.3        1 MOL1         0.1043
      36    H17     16.199842   18.731062   19.743345 H          1 MOL1         0.0783
      37    O9      14.307478   19.440923   20.238024 O.3        1 MOL1        -0.3740
      38    C12     14.699698   17.656838   18.654678 C.3        1 MOL1         0.0138
      39    H18     15.431479   16.902149   18.338638 H          1 MOL1         0.0794
      40    H19     14.647953   18.411799   17.858768 H          1 MOL1         0.0794
      41    O10     13.417845   17.051848   18.848515 O.3        1 MOL1        -0.5486
      42    H20     12.815828   17.770925   19.143406 H          1 MOL1         0.3769
      43    C13     18.588909   23.844192   21.825649 C.3        1 MOL1         0.2972
      44    H21     19.028103   24.824353   22.047545 H          1 MOL1         0.0751
      45    O11     19.490744   23.020347   21.053125 O.3        1 MOL1        -0.3740
      46    C14     18.219925   23.102665   23.138546 C.3        1 MOL1         0.1003
      47    H22     17.468647   23.713520   23.655488 H          1 MOL1         0.0783
      48    O12     19.373938   22.985138   23.986689 O.3        1 MOL1        -0.5519
      49    H23     19.291899   22.153870   24.523095 H          1 MOL1         0.3769
      50    C15     17.565077   21.729804   22.826571 C.3        1 MOL1         0.1053
      51    H24     18.310460   21.080897   22.349225 H          1 MOL1         0.0783
      52    O13     17.092793   21.133147   24.039600 O.3        1 MOL1        -0.5519
      53    H25     17.893228   20.837144   24.547068 H          1 MOL1         0.3769
      54    C16     16.370298   21.904065   21.849611 C.3        1 MOL1         0.1018
      55    H26     15.535450   22.356373   22.401302 H          1 MOL1         0.0783
      56    C17     16.729803   22.793151   20.626705 C.3        1 MOL1         0.1043
      57    H27     17.414355   22.230542   19.978493 H          1 MOL1         0.0783
      58    O14     17.371908   24.014821   21.067701 O.3        1 MOL1        -0.3740
      59    C18     15.498928   23.187545   19.779890 C.3        1 MOL1         0.0138
      60    H28     15.050678   22.279132   19.355538 H          1 MOL1         0.0794
      61    H29     15.833262   23.810459   18.939533 H          1 MOL1         0.0794
      62    O15     14.533757   23.891809   20.567211 O.3        1 MOL1        -0.5486
      63    H30     15.003589   24.667079   20.947790 H          1 MOL1         0.3769
      64    C19     23.565298   22.662503   20.363638 C.3        1 MOL1         0.2972
      65    H31     24.611153   22.756352   20.044381 H          1 MOL1         0.0751
      66    O16     23.277489   21.323660   20.826335 O.3        1 MOL1        -0.3740
      67    C20     23.221094   23.705502   21.458660 C.3        1 MOL1         0.1003
      68    H32     23.329142   24.696557   20.999672 H          1 MOL1         0.0783
      69    O17     24.128806   23.621086   22.567604 O.3        1 MOL1        -0.5519
      70    H33     23.871749   22.813155   23.077632 H          1 MOL1         0.3769
      71    C21     21.741441   23.555177   21.903874 C.3        1 MOL1         0.1053
      72    H34     21.632170   22.584366   22.406708 H          1 MOL1         0.0783
      73    O18     21.408727   24.613505   22.809224 O.3        1 MOL1        -0.5519
      74    H35     20.737607   24.225026   23.422511 H          1 MOL1         0.3769
      75    C22     20.773121   23.577943   20.681770 C.3        1 MOL1         0.1018
      76    H36     20.660916   24.611104   20.327555 H          1 MOL1         0.0783
      77    C23     21.276488   22.701500   19.501034 C.3        1 MOL1         0.1043
      78    H37     21.112992   21.646617   19.752812 H          1 MOL1         0.0783
      79    O19     22.685357   22.943486   19.255411 O.3        1 MOL1        -0.3740
      80    C24     20.515592   23.008290   18.194233 C.3        1 MOL1         0.0138
      81    H38     20.698715   24.051875   17.905577 H          1 MOL1         0.0794
      82    H39     19.437260   22.892517   18.367686 H          1 MOL1         0.0794
      83    O20     20.941450   22.120591   17.158880 O.3        1 MOL1        -0.5486
      84    H40     21.924385   22.130219   17.182720 H          1 MOL1         0.3769
      85    C25     24.900977   17.883631   22.454439 C.3        1 MOL1         0.2972
      86    H41     25.523590   17.108783   22.919270 H          1 MOL1         0.0751
      87    O21     23.703169   17.326647   21.872133 O.3        1 MOL1        -0.3740
      88    C26     24.508354   18.956986   23.502202 C.3        1 MOL1         0.1003
      89    H42     25.436165   19.424424   23.856193 H          1 MOL1         0.0783
      90    O22     23.840878   18.346929   24.618766 O.3        1 MOL1        -0.5519
      91    H43     23.080033   18.933292   24.873573 H          1 MOL1         0.3769
      92    C27     23.643851   20.065149   22.850400 C.3        1 MOL1         0.1053
      93    H44     22.688921   19.615361   22.561451 H          1 MOL1         0.0783
      94    O23     23.422468   21.124729   23.789867 O.3        1 MOL1        -0.5519
      95    H45     22.706636   20.807622   24.402894 H          1 MOL1         0.3769
      96    C28     24.308174   20.633982   21.567076 C.3        1 MOL1         0.1018
      97    H46     25.123576   21.307527   21.860731 H          1 MOL1         0.0783
      98    C29     24.863877   19.519794   20.635829 C.3        1 MOL1         0.1043
      99    H47     24.012765   19.017890   20.156474 H          1 MOL1         0.0783
     100    O24     25.628682   18.556332   21.404308 O.3        1 MOL1        -0.3740
     101    C30     25.776865   20.058732   19.512197 C.3        1 MOL1         0.0138
     102    H48     25.186657   20.708769   18.852789 H          1 MOL1         0.0794
     103    H49     26.128223   19.212185   18.907160 H          1 MOL1         0.0794
     104    O25     26.889300   20.780161   20.049176 O.3        1 MOL1        -0.5486
     105    H50     27.349436   20.161008   20.658732 H          1 MOL1         0.3769
     106    C31     21.411722   13.907993   21.543537 C.3        1 MOL1         0.2972
     107    H51     21.019073   12.887941   21.446434 H          1 MOL1         0.0751
     108    O26     20.369053   14.894732   21.408366 O.3        1 MOL1        -0.3740
     109    C32     22.095446   14.076478   22.921309 C.3        1 MOL1         0.1003
     110    H52     22.923739   13.357184   22.963059 H          1 MOL1         0.0783
     111    O27     21.181301   13.800851   23.991791 O.3        1 MOL1        -0.5519
     112    H53     21.653769   14.098635   24.801415 H          1 MOL1         0.3769
     113    C33     22.693028   15.492913   23.084688 C.3        1 MOL1         0.1053
     114    H54     21.861709   16.207462   23.150277 H          1 MOL1         0.0783
     115    O28     23.462702   15.527041   24.291675 O.3        1 MOL1        -0.5519
     116    H55     23.628812   16.482940   24.485691 H          1 MOL1         0.3769
     117    C34     23.576965   15.890234   21.870534 C.3        1 MOL1         0.1018
     118    H56     24.554239   15.395459   21.946139 H          1 MOL1         0.0783
     119    C35     22.930094   15.520870   20.507022 C.3        1 MOL1         0.1043
     120    H57     22.114540   16.227873   20.313945 H          1 MOL1         0.0783
     121    O29     22.407082   14.167880   20.532787 O.3        1 MOL1        -0.3740
     122    C36     23.922787   15.619038   19.327794 C.3        1 MOL1         0.0138
     123    H58     24.323096   16.640571   19.279722 H          1 MOL1         0.0794
     124    H59     23.378700   15.433222   18.392144 H          1 MOL1         0.0794
     125    O30     24.989756   14.677609   19.476103 O.3        1 MOL1        -0.5486
     126    H60     24.562440   13.801582   19.606027 H          1 MOL1         0.3769
     127    C1      20.287603   19.628476   25.038773 C.2        1 MOL1         0.6132
     128    O1      21.485561   19.745176   25.219034 O.co2      1 MOL1        -0.6749
     129    O2      19.481018   20.508107   25.274042 O.co2      1 MOL1        -0.6749
     130    C2      19.765343   18.316198   24.462970 C.3        1 MOL1        -0.1955
     131    H1      18.717612   18.196837   24.762189 H          1 MOL1         0.0733
     132    H2      20.315332   17.504807   24.953253 H          1 MOL1         0.0733
     133    C3      19.889413   18.167679   22.954668 C.2        1 MOL1        -0.1395
     134    H3      19.690536   17.164880   22.584891 H          1 MOL1         0.0816
     135    C4      20.239079   19.129079   22.093785 C.2        1 MOL1        -0.1394
     136    H4      20.448198   20.142304   22.434498 H          1 MOL1         0.0816
     137    C5      20.416068   18.902954   20.610711 C.3        1 MOL1        -0.1826
     138    H5      21.320705   19.413702   20.258123 H          1 MOL1         0.0736
     139    H6      20.563065   17.836540   20.406009 H          1 MOL1         0.0736
     140    C6      19.190012   19.401535   19.828083 C.3        1 MOL1        -0.2882
     141    H7      19.307636   19.211891   18.753411 H          1 MOL1         0.0749
     142    H8      18.291587   18.881370   20.175403 H          1 MOL1         0.0749
     143    H9      19.039765   20.477190   19.975478 H          1 MOL1         0.0749
@<TRIPOS>BOND
    1     1     2    1
    2     1     3    1
    3     1     4    1
    4     4     5    1
    5     4     6    1
    6     6     7    1
    7     4     8    1
    8     8     9    1
    9     8    10    1
   10    10    11    1
   11     8    12    1
   12    12    13    1
   13    12    14    1
   14    14    15    1
   15     1    16    1
   16    14    16    1
   17    14    17    1
   18    17    18    1
   19    17    19    1
   20    17    20    1
   21    20    21    1
   22    22    23    1
   23    22    24    1
   24    22    25    1
   25    25    26    1
   26    25    27    1
   27    27    28    1
   28    25    29    1
   29    29    30    1
   30    29    31    1
   31    31    32    1
   32     3    33    1
   33    29    33    1
   34    33    34    1
   35    33    35    1
   36    35    36    1
   37    22    37    1
   38    35    37    1
   39    35    38    1
   40    38    39    1
   41    38    40    1
   42    38    41    1
   43    41    42    1
   44    43    44    1
   45    43    45    1
   46    43    46    1
   47    46    47    1
   48    46    48    1
   49    48    49    1
   50    46    50    1
   51    50    51    1
   52    50    52    1
   53    52    53    1
   54    24    54    1
   55    50    54    1
   56    54    55    1
   57    54    56    1
   58    56    57    1
   59    43    58    1
   60    56    58    1
   61    56    59    1
   62    59    60    1
   63    59    61    1
   64    59    62    1
   65    62    63    1
   66    64    65    1
   67    64    66    1
   68    64    67    1
   69    67    68    1
   70    67    69    1
   71    69    70    1
   72    67    71    1
   73    71    72    1
   74    71    73    1
   75    73    74    1
   76    45    75    1
   77    71    75    1
   78    75    76    1
   79    75    77    1
   80    77    78    1
   81    64    79    1
   82    77    79    1
   83    77    80    1
   84    80    81    1
   85    80    82    1
   86    80    83    1
   87    83    84    1
   88    85    86    1
   89    85    87    1
   90    85    88    1
   91    88    89    1
   92    88    90    1
   93    90    91    1
   94    88    92    1
   95    92    93    1
   96    92    94    1
   97    94    95    1
   98    66    96    1
   99    92    96    1
  100    96    97    1
  101    96    98    1
  102    98    99    1
  103    85   100    1
  104    98   100    1
  105    98   101    1
  106   101   102    1
  107   101   103    1
  108   101   104    1
  109   104   105    1
  110   106   107    1
  111    12   108    1
  112   106   108    1
  113   106   109    1
  114   109   110    1
  115   109   111    1
  116   111   112    1
  117   109   113    1
  118   113   114    1
  119   113   115    1
  120   115   116    1
  121    87   117    1
  122   113   117    1
  123   117   118    1
  124   117   119    1
  125   119   120    1
  126   106   121    1
  127   119   121    1
  128   119   122    1
  129   122   123    1
  130   122   124    1
  131   122   125    1
  132   125   126    1
  133   127   128    1
  134   127   129    2
  135   127   130    1
  136   130   131    1
  137   130   132    1
  138   130   133    1
  139   133   134    1
  140   133   135    2
  141   135   136    1
  142   135   137    1
  143   137   138    1
  144   137   139    1
  145   137   140    1
  146   140   141    1
  147   140   142    1
  148   140   143    1
@<TRIPOS>SUBSTRUCTURE
       1 MOL1            1 RESIDUE      1      MOL     
       2 MOL1          143 RESIDUE      1      MOL     
@<SCITEGIC>MOL_PROPERTY
VM2 Rank
SciTegic.value.IntegerValue
6

@<SCITEGIC>MOL_PROPERTY
Conf_Id
SciTegic.value.IntegerValue
12199

@<SCITEGIC>MOL_PROPERTY
Probability
SciTegic.value.DoubleValue
0.94

@<SCITEGIC>MOL_PROPERTY
Sum Probability
SciTegic.value.DoubleValue
7.06

@<SCITEGIC>MOL_PROPERTY
Delta G
SciTegic.value.DoubleValue
0.280

@<SCITEGIC>MOL_PROPERTY
G
SciTegic.value.DoubleValue
490.545

@<SCITEGIC>MOL_PROPERTY
E
SciTegic.value.DoubleValue
305.375

@<SCITEGIC>MOL_PROPERTY
-TS
SciTegic.value.DoubleValue
185.170

@<SCITEGIC>MOL_PROPERTY
U+W
SciTegic.value.DoubleValue
179.287

@<SCITEGIC>MOL_PROPERTY
U
SciTegic.value.DoubleValue
240.803

@<SCITEGIC>MOL_PROPERTY
W
SciTegic.value.DoubleValue
-61.516

@<SCITEGIC>MOL_PROPERTY
W(PB)
SciTegic.value.DoubleValue
-67.541

@<SCITEGIC>MOL_PROPERTY
W(SA)
SciTegic.value.DoubleValue
6.025

@<SCITEGIC>MOL_PROPERTY
Valence
SciTegic.value.DoubleValue
158.647

@<SCITEGIC>MOL_PROPERTY
Coulomb
SciTegic.value.DoubleValue
102.304

@<SCITEGIC>MOL_PROPERTY
VdW
SciTegic.value.DoubleValue
-20.148

@<SCITEGIC>MOL_PROPERTY
VdW6
SciTegic.value.DoubleValue
-181.718

@<SCITEGIC>MOL_PROPERTY
VdW12
SciTegic.value.DoubleValue
161.570

@<SCITEGIC>MOL_PROPERTY
Bond
SciTegic.value.DoubleValue
5.234

@<SCITEGIC>MOL_PROPERTY
Angle
SciTegic.value.DoubleValue
12.631

@<SCITEGIC>MOL_PROPERTY
Pdih
SciTegic.value.DoubleValue
140.778

@<SCITEGIC>MOL_PROPERTY
Idih
SciTegic.value.DoubleValue
0.005

@<SCITEGIC>MOL_PROPERTY
Tether
SciTegic.value.DoubleValue
0.000

@<TRIPOS>MOLECULE
CD_guest-s20_vm2_rndm.mol2 : vm2 host+ligand conformer 7
         143         148           2
SMALL
USER_CHARGES
 
@<TRIPOS>ATOM
       1    C1      16.279676   15.216671   20.667789 C.3        1 MOL1         0.2972
       2    H1      15.256152   15.020989   20.323154 H          1 MOL1         0.0751
       3    O1      16.413034   16.546146   21.204363 O.3        1 MOL1        -0.3740
       4    C2      16.679420   14.204208   21.772741 C.3        1 MOL1         0.1003
       5    H2      16.566967   13.197818   21.348993 H          1 MOL1         0.0783
       6    O2      15.831936   14.330368   22.924203 O.3        1 MOL1        -0.5519
       7    H3      16.245368   13.750495   23.602405 H          1 MOL1         0.3769
       8    C3      18.158828   14.380554   22.193336 C.3        1 MOL1         0.1053
       9    H4      18.250264   15.339780   22.721143 H          1 MOL1         0.0783
      10    O3      18.533643   13.305981   23.063566 O.3        1 MOL1        -0.5519
      11    H5      19.452324   13.501470   23.376413 H          1 MOL1         0.3769
      12    C4      19.095628   14.414679   20.958564 C.3        1 MOL1         0.1018
      13    H6      19.157146   13.410536   20.518194 H          1 MOL1         0.0783
      14    C5      18.588216   15.398154   19.873409 C.3        1 MOL1         0.1043
      15    H7      18.676017   16.427589   20.245794 H          1 MOL1         0.0783
      16    O4      17.208233   15.078895   19.570880 O.3        1 MOL1        -0.3740
      17    C6      19.388976   15.275608   18.560039 C.3        1 MOL1         0.0138
      18    H8      19.278622   14.258024   18.162298 H          1 MOL1         0.0794
      19    H9      20.454098   15.439309   18.766330 H          1 MOL1         0.0794
      20    O5      18.924648   16.236470   17.610677 O.3        1 MOL1        -0.5486
      21    H10     17.948169   16.138619   17.583203 H          1 MOL1         0.3769
      22    C7      14.626889   20.229192   21.248488 C.3        1 MOL1         0.2972
      23    H11     13.989358   21.122004   21.211287 H          1 MOL1         0.0751
      24    O6      16.030261   20.580044   21.237189 O.3        1 MOL1        -0.3740
      25    C8      14.306039   19.365640   22.496419 C.3        1 MOL1         0.1003
      26    H12     13.280628   18.993290   22.376374 H          1 MOL1         0.0783
      27    O7      14.366302   20.147757   23.697662 O.3        1 MOL1        -0.5519
      28    H13     15.315459   20.393718   23.830449 H          1 MOL1         0.3769
      29    C9      15.250336   18.134645   22.542979 C.3        1 MOL1         0.1053
      30    H14     16.276442   18.490509   22.713764 H          1 MOL1         0.0783
      31    O8      14.866603   17.230755   23.587592 O.3        1 MOL1        -0.5519
      32    H15     15.362373   16.392313   23.426307 H          1 MOL1         0.3769
      33    C10     15.220045   17.353511   21.203854 C.3        1 MOL1         0.1018
      34    H16     14.312997   16.734402   21.197769 H          1 MOL1         0.0783
      35    C11     15.244160   18.258465   19.935379 C.3        1 MOL1         0.1043
      36    H17     16.267483   18.615673   19.783971 H          1 MOL1         0.0783
      37    O9      14.363345   19.396261   20.101350 O.3        1 MOL1        -0.3740
      38    C12     14.813282   17.528496   18.643360 C.3        1 MOL1         0.0138
      39    H18     15.538071   16.737257   18.415655 H          1 MOL1         0.0794
      40    H19     14.842170   18.242966   17.809796 H          1 MOL1         0.0794
      41    O10     13.501100   16.973724   18.774700 O.3        1 MOL1        -0.5486
      42    H20     12.906078   17.724747   18.994720 H          1 MOL1         0.3769
      43    C13     18.592061   23.817877   21.834976 C.3        1 MOL1         0.2972
      44    H21     19.018976   24.796432   22.086249 H          1 MOL1         0.0751
      45    O11     19.518619   23.016131   21.068905 O.3        1 MOL1        -0.3740
      46    C14     18.197579   23.049735   23.125274 C.3        1 MOL1         0.1003
      47    H22     17.434471   23.649269   23.638109 H          1 MOL1         0.0783
      48    O12     19.334522   22.919854   23.994229 O.3        1 MOL1        -0.5519
      49    H23     19.249773   22.071957   24.503617 H          1 MOL1         0.3769
      50    C15     17.551893   21.681195   22.775736 C.3        1 MOL1         0.1053
      51    H24     18.307927   21.041662   22.302606 H          1 MOL1         0.0783
      52    O13     17.053562   21.061513   23.967475 O.3        1 MOL1        -0.5519
      53    H25     17.843252   20.748618   24.481420 H          1 MOL1         0.3769
      54    C16     16.378871   21.872861   21.776578 C.3        1 MOL1         0.1018
      55    H26     15.536284   22.324187   22.317292 H          1 MOL1         0.0783
      56    C17     16.768819   22.776868   20.573916 C.3        1 MOL1         0.1043
      57    H27     17.473158   22.224528   19.938599 H          1 MOL1         0.0783
      58    O14     17.393561   23.994648   21.049376 O.3        1 MOL1        -0.3740
      59    C18     15.562827   23.180019   19.695907 C.3        1 MOL1         0.0138
      60    H28     15.135059   22.277487   19.239268 H          1 MOL1         0.0794
      61    H29     15.919695   23.821328   18.878966 H          1 MOL1         0.0794
      62    O15     14.567747   23.862664   20.464721 O.3        1 MOL1        -0.5486
      63    H30     15.018598   24.634997   20.873132 H          1 MOL1         0.3769
      64    C19     23.602878   22.710090   20.430633 C.3        1 MOL1         0.2972
      65    H31     24.653438   22.817740   20.131817 H          1 MOL1         0.0751
      66    O16     23.313260   21.356757   20.848469 O.3        1 MOL1        -0.3740
      67    C20     23.234624   23.719718   21.548963 C.3        1 MOL1         0.1003
      68    H32     23.342212   24.723886   21.119301 H          1 MOL1         0.0783
      69    O17     24.126569   23.611077   22.668431 O.3        1 MOL1        -0.5519
      70    H33     23.866917   22.788480   23.152985 H          1 MOL1         0.3769
      71    C21     21.749286   23.546808   21.966757 C.3        1 MOL1         0.1053
      72    H34     21.639173   22.561779   22.440850 H          1 MOL1         0.0783
      73    O18     21.393128   24.576918   22.895422 O.3        1 MOL1        -0.5519
      74    H35     20.709206   24.169397   23.481683 H          1 MOL1         0.3769
      75    C22     20.800002   23.596383   20.730813 C.3        1 MOL1         0.1018
      76    H36     20.682741   24.638381   20.405236 H          1 MOL1         0.0783
      77    C23     21.329304   22.760308   19.532087 C.3        1 MOL1         0.1043
      78    H37     21.171457   21.696969   19.748985 H          1 MOL1         0.0783
      79    O19     22.739929   23.019799   19.316809 O.3        1 MOL1        -0.3740
      80    C24     20.586564   23.100701   18.223194 C.3        1 MOL1         0.0138
      81    H38     20.766447   24.153665   17.968569 H          1 MOL1         0.0794
      82    H39     19.506558   22.972401   18.376251 H          1 MOL1         0.0794
      83    O20     21.034892   22.247144   17.168778 O.3        1 MOL1        -0.5486
      84    H40     22.017255   22.263639   17.207604 H          1 MOL1         0.3769
      85    C25     24.912231   17.876093   22.414207 C.3        1 MOL1         0.2972
      86    H41     25.529592   17.091074   22.868931 H          1 MOL1         0.0751
      87    O21     23.725480   17.329900   21.798866 O.3        1 MOL1        -0.3740
      88    C26     24.502929   18.923667   23.482024 C.3        1 MOL1         0.1003
      89    H42     25.425405   19.382717   23.860144 H          1 MOL1         0.0783
      90    O22     23.820100   18.288901   24.575239 O.3        1 MOL1        -0.5519
      91    H43     23.048068   18.863184   24.823828 H          1 MOL1         0.3769
      92    C27     23.647910   20.047434   22.845233 C.3        1 MOL1         0.1053
      93    H44     22.697658   19.605083   22.530061 H          1 MOL1         0.0783
      94    O23     23.411824   21.082211   23.808308 O.3        1 MOL1        -0.5519
      95    H45     22.685043   20.750052   24.400108 H          1 MOL1         0.3769
      96    C28     24.332316   20.648926   21.587768 C.3        1 MOL1         0.1018
      97    H46     25.142673   21.315031   21.910982 H          1 MOL1         0.0783
      98    C29     24.902338   19.558312   20.637452 C.3        1 MOL1         0.1043
      99    H47     24.058815   19.068666   20.132718 H          1 MOL1         0.0783
     100    O24     25.655480   18.575463   21.392752 O.3        1 MOL1        -0.3740
     101    C30     25.832142   20.125773   19.542016 C.3        1 MOL1         0.0138
     102    H48     25.252060   20.793558   18.891394 H          1 MOL1         0.0794
     103    H49     26.191955   19.295128   18.920138 H          1 MOL1         0.0794
     104    O25     26.936855   20.831842   20.114259 O.3        1 MOL1        -0.5486
     105    H50     27.387547   20.196458   20.714094 H          1 MOL1         0.3769
     106    C31     21.435251   13.901947   21.476152 C.3        1 MOL1         0.2972
     107    H51     21.046348   12.881631   21.367897 H          1 MOL1         0.0751
     108    O26     20.381940   14.884191   21.405392 O.3        1 MOL1        -0.3740
     109    C32     22.173663   14.042165   22.829142 C.3        1 MOL1         0.1003
     110    H52     23.009859   13.330916   22.817408 H          1 MOL1         0.0783
     111    O27     21.310120   13.729971   23.930697 O.3        1 MOL1        -0.5519
     112    H53     21.816595   14.009373   24.726352 H          1 MOL1         0.3769
     113    C33     22.764458   15.459778   23.005527 C.3        1 MOL1         0.1053
     114    H54     21.929967   16.165305   23.118867 H          1 MOL1         0.0783
     115    O28     23.576988   15.469160   24.184713 O.3        1 MOL1        -0.5519
     116    H55     23.712746   16.421432   24.416246 H          1 MOL1         0.3769
     117    C34     23.600250   15.892984   21.769395 C.3        1 MOL1         0.1018
     118    H56     24.581401   15.400722   21.794359 H          1 MOL1         0.0783
     119    C35     22.901915   15.552652   20.423558 C.3        1 MOL1         0.1043
     120    H57     22.074440   16.257300   20.281840 H          1 MOL1         0.0783
     121    O29     22.389065   14.195330   20.434832 O.3        1 MOL1        -0.3740
     122    C36     23.845327   15.688971   19.208265 C.3        1 MOL1         0.0138
     123    H58     24.235687   16.714774   19.170326 H          1 MOL1         0.0794
     124    H59     23.265129   15.522378   18.290866 H          1 MOL1         0.0794
     125    O30     24.924319   14.753038   19.289213 O.3        1 MOL1        -0.5486
     126    H60     24.509046   13.870408   19.413312 H          1 MOL1         0.3769
     127    C1      20.252046   19.546319   24.955183 C.2        1 MOL1         0.6132
     128    O1      21.446149   19.667102   25.156815 O.co2      1 MOL1        -0.6749
     129    O2      19.433597   20.409643   25.208846 O.co2      1 MOL1        -0.6749
     130    C2      19.749903   18.247140   24.334682 C.3        1 MOL1        -0.1955
     131    H1      18.698165   18.112300   24.612776 H          1 MOL1         0.0733
     132    H2      20.297410   17.426529   24.812202 H          1 MOL1         0.0733
     133    C3      19.899820   18.140046   22.825352 C.2        1 MOL1        -0.1395
     134    H3      19.711449   17.147148   22.428146 H          1 MOL1         0.0816
     135    C4      20.256881   19.123249   21.992648 C.2        1 MOL1        -0.1394
     136    H4      20.456208   20.128946   22.360553 H          1 MOL1         0.0816
     137    C5      20.452852   18.933168   20.506234 C.3        1 MOL1        -0.1826
     138    H5      21.380439   19.423393   20.184915 H          1 MOL1         0.0736
     139    H6      20.564187   17.868802   20.270752 H          1 MOL1         0.0736
     140    C6      19.260461   19.494525   19.714707 C.3        1 MOL1        -0.2882
     141    H7      19.399628   19.342989   18.636574 H          1 MOL1         0.0749
     142    H8      18.340544   18.986801   20.018919 H          1 MOL1         0.0749
     143    H9      19.133996   20.566692   19.900119 H          1 MOL1         0.0749
@<TRIPOS>BOND
    1     1     2    1
    2     1     3    1
    3     1     4    1
    4     4     5    1
    5     4     6    1
    6     6     7    1
    7     4     8    1
    8     8     9    1
    9     8    10    1
   10    10    11    1
   11     8    12    1
   12    12    13    1
   13    12    14    1
   14    14    15    1
   15     1    16    1
   16    14    16    1
   17    14    17    1
   18    17    18    1
   19    17    19    1
   20    17    20    1
   21    20    21    1
   22    22    23    1
   23    22    24    1
   24    22    25    1
   25    25    26    1
   26    25    27    1
   27    27    28    1
   28    25    29    1
   29    29    30    1
   30    29    31    1
   31    31    32    1
   32     3    33    1
   33    29    33    1
   34    33    34    1
   35    33    35    1
   36    35    36    1
   37    22    37    1
   38    35    37    1
   39    35    38    1
   40    38    39    1
   41    38    40    1
   42    38    41    1
   43    41    42    1
   44    43    44    1
   45    43    45    1
   46    43    46    1
   47    46    47    1
   48    46    48    1
   49    48    49    1
   50    46    50    1
   51    50    51    1
   52    50    52    1
   53    52    53    1
   54    24    54    1
   55    50    54    1
   56    54    55    1
   57    54    56    1
   58    56    57    1
   59    43    58    1
   60    56    58    1
   61    56    59    1
   62    59    60    1
   63    59    61    1
   64    59    62    1
   65    62    63    1
   66    64    65    1
   67    64    66    1
   68    64    67    1
   69    67    68    1
   70    67    69    1
   71    69    70    1
   72    67    71    1
   73    71    72    1
   74    71    73    1
   75    73    74    1
   76    45    75    1
   77    71    75    1
   78    75    76    1
   79    75    77    1
   80    77    78    1
   81    64    79    1
   82    77    79    1
   83    77    80    1
   84    80    81    1
   85    80    82    1
   86    80    83    1
   87    83    84    1
   88    85    86    1
   89    85    87    1
   90    85    88    1
   91    88    89    1
   92    88    90    1
   93    90    91    1
   94    88    92    1
   95    92    93    1
   96    92    94    1
   97    94    95    1
   98    66    96    1
   99    92    96    1
  100    96    97    1
  101    96    98    1
  102    98    99    1
  103    85   100    1
  104    98   100    1
  105    98   101    1
  106   101   102    1
  107   101   103    1
  108   101   104    1
  109   104   105    1
  110   106   107    1
  111    12   108    1
  112   106   108    1
  113   106   109    1
  114   109   110    1
  115   109   111    1
  116   111   112    1
  117   109   113    1
  118   113   114    1
  119   113   115    1
  120   115   116    1
  121    87   117    1
  122   113   117    1
  123   117   118    1
  124   117   119    1
  125   119   120    1
  126   106   121    1
  127   119   121    1
  128   119   122    1
  129   122   123    1
  130   122   124    1
  131   122   125    1
  132   125   126    1
  133   127   128    1
  134   127   129    2
  135   127   130    1
  136   130   131    1
  137   130   132    1
  138   130   133    1
  139   133   134    1
  140   133   135    2
  141   135   136    1
  142   135   137    1
  143   137   138    1
  144   137   139    1
  145   137   140    1
  146   140   141    1
  147   140   142    1
  148   140   143    1
@<TRIPOS>SUBSTRUCTURE
       1 MOL1            1 RESIDUE      1      MOL     
       2 MOL1          143 RESIDUE      1      MOL     
@<SCITEGIC>MOL_PROPERTY
VM2 Rank
SciTegic.value.IntegerValue
7

@<SCITEGIC>MOL_PROPERTY
Conf_Id
SciTegic.value.IntegerValue
6873

@<SCITEGIC>MOL_PROPERTY
Probability
SciTegic.value.DoubleValue
0.93

@<SCITEGIC>MOL_PROPERTY
Sum Probability
SciTegic.value.DoubleValue
7.99

@<SCITEGIC>MOL_PROPERTY
Delta G
SciTegic.value.DoubleValue
0.288

@<SCITEGIC>MOL_PROPERTY
G
SciTegic.value.DoubleValue
490.553

@<SCITEGIC>MOL_PROPERTY
E
SciTegic.value.DoubleValue
305.520

@<SCITEGIC>MOL_PROPERTY
-TS
SciTegic.value.DoubleValue
185.033

@<SCITEGIC>MOL_PROPERTY
U+W
SciTegic.value.DoubleValue
179.432

@<SCITEGIC>MOL_PROPERTY
U
SciTegic.value.DoubleValue
242.609

@<SCITEGIC>MOL_PROPERTY
W
SciTegic.value.DoubleValue
-63.177

@<SCITEGIC>MOL_PROPERTY
W(PB)
SciTegic.value.DoubleValue
-69.151

@<SCITEGIC>MOL_PROPERTY
W(SA)
SciTegic.value.DoubleValue
5.974

@<SCITEGIC>MOL_PROPERTY
Valence
SciTegic.value.DoubleValue
158.282

@<SCITEGIC>MOL_PROPERTY
Coulomb
SciTegic.value.DoubleValue
104.705

@<SCITEGIC>MOL_PROPERTY
VdW
SciTegic.value.DoubleValue
-20.379

@<SCITEGIC>MOL_PROPERTY
VdW6
SciTegic.value.DoubleValue
-181.267

@<SCITEGIC>MOL_PROPERTY
VdW12
SciTegic.value.DoubleValue
160.888

@<SCITEGIC>MOL_PROPERTY
Bond
SciTegic.value.DoubleValue
5.195

@<SCITEGIC>MOL_PROPERTY
Angle
SciTegic.value.DoubleValue
12.748

@<SCITEGIC>MOL_PROPERTY
Pdih
SciTegic.value.DoubleValue
140.336

@<SCITEGIC>MOL_PROPERTY
Idih
SciTegic.value.DoubleValue
0.004

@<SCITEGIC>MOL_PROPERTY
Tether
SciTegic.value.DoubleValue
0.000

@<TRIPOS>MOLECULE
CD_guest-s20_vm2_rndm.mol2 : vm2 host+ligand conformer 8
         143         148           2
SMALL
USER_CHARGES
 
@<TRIPOS>ATOM
       1    C1      16.281479   15.188863   20.688406 C.3        1 MOL1         0.2972
       2    H1      15.258536   14.993012   20.342131 H          1 MOL1         0.0751
       3    O1      16.415674   16.521191   21.217699 O.3        1 MOL1        -0.3740
       4    C2      16.676331   14.182081   21.800275 C.3        1 MOL1         0.1003
       5    H2      16.562817   13.173444   21.382189 H          1 MOL1         0.0783
       6    O2      15.826212   14.316878   22.948820 O.3        1 MOL1        -0.5519
       7    H3      16.236543   13.740018   23.631456 H          1 MOL1         0.3769
       8    C3      18.155009   14.357816   22.223636 C.3        1 MOL1         0.1053
       9    H4      18.247183   15.320032   22.745933 H          1 MOL1         0.0783
      10    O3      18.525158   13.287748   23.101371 O.3        1 MOL1        -0.5519
      11    H5      19.441490   13.485868   23.419393 H          1 MOL1         0.3769
      12    C4      19.095087   14.382822   20.991091 C.3        1 MOL1         0.1018
      13    H6      19.156243   13.376169   20.556423 H          1 MOL1         0.0783
      14    C5      18.592444   15.361318   19.899207 C.3        1 MOL1         0.1043
      15    H7      18.681223   16.392475   20.266403 H          1 MOL1         0.0783
      16    O4      17.212686   15.043278   19.594730 O.3        1 MOL1        -0.3740
      17    C6      19.396486   15.230753   18.588590 C.3        1 MOL1         0.0138
      18    H8      19.280491   14.213153   18.192493 H          1 MOL1         0.0794
      19    H9      20.462038   15.387512   18.797930 H          1 MOL1         0.0794
      20    O5      18.941964   16.193124   17.635896 O.3        1 MOL1        -0.5486
      21    H10     17.965214   16.100112   17.603080 H          1 MOL1         0.3769
      22    C7      14.632439   20.206355   21.231043 C.3        1 MOL1         0.2972
      23    H11     13.995419   21.099187   21.186191 H          1 MOL1         0.0751
      24    O6      16.036051   20.556029   21.217794 O.3        1 MOL1        -0.3740
      25    C8      14.310708   19.353265   22.485916 C.3        1 MOL1         0.1003
      26    H12     13.285023   18.980733   22.368788 H          1 MOL1         0.0783
      27    O7      14.371435   20.145323   23.680612 O.3        1 MOL1        -0.5519
      28    H13     15.319950   20.395939   23.809171 H          1 MOL1         0.3769
      29    C9      15.254017   18.121893   22.542823 C.3        1 MOL1         0.1053
      30    H14     16.280321   18.478321   22.711201 H          1 MOL1         0.0783
      31    O8      14.869148   17.226667   23.594441 O.3        1 MOL1        -0.5519
      32    H15     15.363037   16.386033   23.439049 H          1 MOL1         0.3769
      33    C10     15.223694   17.330034   21.210010 C.3        1 MOL1         0.1018
      34    H16     14.315883   16.712008   21.208152 H          1 MOL1         0.0783
      35    C11     15.249920   18.225040   19.934612 C.3        1 MOL1         0.1043
      36    H17     16.273604   18.580883   19.782527 H          1 MOL1         0.0783
      37    O9      14.369250   19.364274   20.090591 O.3        1 MOL1        -0.3740
      38    C12     14.820783   17.485604   18.647388 C.3        1 MOL1         0.0138
      39    H18     15.546188   16.693158   18.425997 H          1 MOL1         0.0794
      40    H19     14.850147   18.194110   17.808769 H          1 MOL1         0.0794
      41    O10     13.508760   16.931100   18.781312 O.3        1 MOL1        -0.5486
      42    H20     12.912990   17.683411   18.994805 H          1 MOL1         0.3769
      43    C13     18.602607   23.794661   21.772972 C.3        1 MOL1         0.2972
      44    H21     19.033809   24.774955   22.009747 H          1 MOL1         0.0751
      45    O11     19.526485   22.976645   21.020897 O.3        1 MOL1        -0.3740
      46    C14     18.205465   23.047373   23.074281 C.3        1 MOL1         0.1003
      47    H22     17.444006   23.656730   23.577894 H          1 MOL1         0.0783
      48    O12     19.342049   22.927048   23.945266 O.3        1 MOL1        -0.5519
      49    H23     19.261558   22.079637   24.456187 H          1 MOL1         0.3769
      50    C15     17.555816   21.675792   22.743980 C.3        1 MOL1         0.1053
      51    H24     18.310601   21.027057   22.281283 H          1 MOL1         0.0783
      52    O13     17.054345   21.074919   23.943927 O.3        1 MOL1        -0.5519
      53    H25     17.843079   20.764461   24.460799 H          1 MOL1         0.3769
      54    C16     16.384316   21.855557   21.740769 C.3        1 MOL1         0.1018
      55    H26     15.541310   22.314176   22.274655 H          1 MOL1         0.0783
      56    C17     16.775878   22.743502   20.526727 C.3        1 MOL1         0.1043
      57    H27     17.478937   22.182120   19.898147 H          1 MOL1         0.0783
      58    O14     17.403570   23.965079   20.986916 O.3        1 MOL1        -0.3740
      59    C18     15.570828   23.138745   19.643900 C.3        1 MOL1         0.0138
      60    H28     15.141447   22.231814   19.197630 H          1 MOL1         0.0794
      61    H29     15.929317   23.769937   18.819764 H          1 MOL1         0.0794
      62    O15     14.576845   23.832129   20.404498 O.3        1 MOL1        -0.5486
      63    H30     15.028986   24.608838   20.803083 H          1 MOL1         0.3769
      64    C19     23.606683   22.648662   20.372357 C.3        1 MOL1         0.2972
      65    H31     24.657155   22.747974   20.070369 H          1 MOL1         0.0751
      66    O16     23.314800   21.303890   20.814755 O.3        1 MOL1        -0.3740
      67    C20     23.243496   23.679268   21.473803 C.3        1 MOL1         0.1003
      68    H32     23.353459   24.675711   21.027094 H          1 MOL1         0.0783
      69    O17     24.137489   23.584980   22.593115 O.3        1 MOL1        -0.5519
      70    H33     23.876178   22.770810   23.090911 H          1 MOL1         0.3769
      71    C21     21.758990   23.518802   21.899446 C.3        1 MOL1         0.1053
      72    H34     21.647320   22.540033   22.385966 H          1 MOL1         0.0783
      73    O18     21.409934   24.560122   22.818504 O.3        1 MOL1        -0.5519
      74    H35     20.723161   24.163134   23.408561 H          1 MOL1         0.3769
      75    C22     20.804731   23.555429   20.667190 C.3        1 MOL1         0.1018
      76    H36     20.683867   24.593525   20.330950 H          1 MOL1         0.0783
      77    C23     21.331175   22.701338   19.478957 C.3        1 MOL1         0.1043
      78    H37     21.173548   21.644415   19.723299 H          1 MOL1         0.0783
      79    O19     22.744314   22.936842   19.252729 O.3        1 MOL1        -0.3740
      80    C24     20.587204   22.989136   18.156342 C.3        1 MOL1         0.0138
      81    H38     19.515319   22.797082   18.299089 H          1 MOL1         0.0794
      82    H39     20.947864   22.289695   17.390428 H          1 MOL1         0.0794
      83    O20     20.795936   24.339820   17.732695 O.3        1 MOL1        -0.5486
      84    H40     21.770384   24.469225   17.710306 H          1 MOL1         0.3769
      85    C25     24.916312   17.844676   22.421803 C.3        1 MOL1         0.2972
      86    H41     25.533343   17.064568   22.885338 H          1 MOL1         0.0751
      87    O21     23.726990   17.292984   21.816501 O.3        1 MOL1        -0.3740
      88    C26     24.511280   18.906874   23.476624 C.3        1 MOL1         0.1003
      89    H42     25.435265   19.370249   23.845666 H          1 MOL1         0.0783
      90    O22     23.831325   18.287428   24.580280 O.3        1 MOL1        -0.5519
      91    H43     23.051617   18.858184   24.812879 H          1 MOL1         0.3769
      92    C27     23.655007   20.022320   22.826940 C.3        1 MOL1         0.1053
      93    H44     22.703547   19.576059   22.520455 H          1 MOL1         0.0783
      94    O23     23.421251   21.070765   23.775724 O.3        1 MOL1        -0.5519
      95    H45     22.693123   20.747219   24.370614 H          1 MOL1         0.3769
      96    C28     24.336410   20.606197   21.559901 C.3        1 MOL1         0.1018
      97    H46     25.147355   21.276731   21.872301 H          1 MOL1         0.0783
      98    C29     24.904467   19.503037   20.622847 C.3        1 MOL1         0.1043
      99    H47     24.059951   19.007329   20.125818 H          1 MOL1         0.0783
     100    O24     25.658160   18.529501   21.389559 O.3        1 MOL1        -0.3740
     101    C30     25.832966   20.055499   19.518655 C.3        1 MOL1         0.0138
     102    H48     25.252195   20.714459   18.859686 H          1 MOL1         0.0794
     103    H49     26.191946   19.216457   18.907660 H          1 MOL1         0.0794
     104    O25     26.938470   20.769094   20.079894 O.3        1 MOL1        -0.5486
     105    H50     27.390265   20.141662   20.687228 H          1 MOL1         0.3769
     106    C31     21.430160   13.867793   21.526961 C.3        1 MOL1         0.2972
     107    H51     21.037980   12.847588   21.429961 H          1 MOL1         0.0751
     108    O26     20.380951   14.852899   21.438408 O.3        1 MOL1        -0.3740
     109    C32     22.162965   14.023030   22.881403 C.3        1 MOL1         0.1003
     110    H52     22.997262   13.309456   22.882362 H          1 MOL1         0.0783
     111    O27     21.293788   13.727119   23.983007 O.3        1 MOL1        -0.5519
     112    H53     21.797435   14.015469   24.777271 H          1 MOL1         0.3769
     113    C33     22.756829   15.441208   23.042351 C.3        1 MOL1         0.1053
     114    H54     21.923738   16.150396   23.142802 H          1 MOL1         0.0783
     115    O28     23.564276   15.463795   24.224854 O.3        1 MOL1        -0.5519
     116    H55     23.706329   16.418528   24.441950 H          1 MOL1         0.3769
     117    C34     23.599368   15.856147   21.804622 C.3        1 MOL1         0.1018
     118    H56     24.579315   15.362175   21.840720 H          1 MOL1         0.0783
     119    C35     22.906711   15.500170   20.459932 C.3        1 MOL1         0.1043
     120    H57     22.082059   16.205441   20.305032 H          1 MOL1         0.0783
     121    O29     22.389735   14.144613   20.486421 O.3        1 MOL1        -0.3740
     122    C36     23.856550   15.617786   19.247700 C.3        1 MOL1         0.0138
     123    H58     24.250201   16.641835   19.198300 H          1 MOL1         0.0794
     124    H59     23.280440   15.440845   18.329665 H          1 MOL1         0.0794
     125    O30     24.932334   14.679875   19.346325 O.3        1 MOL1        -0.5486
     126    H60     24.513848   13.800115   19.479698 H          1 MOL1         0.3769
     127    C1      20.252395   19.550196   24.915380 C.2        1 MOL1         0.6132
     128    O1      21.447065   19.661645   25.118615 O.co2      1 MOL1        -0.6749
     129    O2      19.440985   20.420599   25.167121 O.co2      1 MOL1        -0.6749
     130    C2      19.739414   18.251968   24.301577 C.3        1 MOL1        -0.1955
     131    H1      18.684793   18.130369   24.574858 H          1 MOL1         0.0733
     132    H2      20.275383   17.429438   24.788770 H          1 MOL1         0.0733
     133    C3      19.896487   18.130336   22.793984 C.2        1 MOL1        -0.1395
     134    H3      19.705563   17.134485   22.405670 H          1 MOL1         0.0816
     135    C4      20.262077   19.103576   21.953238 C.2        1 MOL1        -0.1394
     136    H4      20.464148   20.111937   22.312351 H          1 MOL1         0.0816
     137    C5      20.464706   18.897289   20.469666 C.3        1 MOL1        -0.1826
     138    H5      21.393109   19.385130   20.147637 H          1 MOL1         0.0736
     139    H6      20.579965   17.830459   20.246961 H          1 MOL1         0.0736
     140    C6      19.273866   19.446078   19.666547 C.3        1 MOL1        -0.2882
     141    H7      19.421933   19.291354   18.590247 H          1 MOL1         0.0749
     142    H8      18.356914   18.929315   19.964756 H          1 MOL1         0.0749
     143    H9      19.133776   20.516929   19.850147 H          1 MOL1         0.0749
@<TRIPOS>BOND
    1     1     2    1
    2     1     3    1
    3     1     4    1
    4     4     5    1
    5     4     6    1
    6     6     7    1
    7     4     8    1
    8     8     9    1
    9     8    10    1
   10    10    11    1
   11     8    12    1
   12    12    13    1
   13    12    14    1
   14    14    15    1
   15     1    16    1
   16    14    16    1
   17    14    17    1
   18    17    18    1
   19    17    19    1
   20    17    20    1
   21    20    21    1
   22    22    23    1
   23    22    24    1
   24    22    25    1
   25    25    26    1
   26    25    27    1
   27    27    28    1
   28    25    29    1
   29    29    30    1
   30    29    31    1
   31    31    32    1
   32     3    33    1
   33    29    33    1
   34    33    34    1
   35    33    35    1
   36    35    36    1
   37    22    37    1
   38    35    37    1
   39    35    38    1
   40    38    39    1
   41    38    40    1
   42    38    41    1
   43    41    42    1
   44    43    44    1
   45    43    45    1
   46    43    46    1
   47    46    47    1
   48    46    48    1
   49    48    49    1
   50    46    50    1
   51    50    51    1
   52    50    52    1
   53    52    53    1
   54    24    54    1
   55    50    54    1
   56    54    55    1
   57    54    56    1
   58    56    57    1
   59    43    58    1
   60    56    58    1
   61    56    59    1
   62    59    60    1
   63    59    61    1
   64    59    62    1
   65    62    63    1
   66    64    65    1
   67    64    66    1
   68    64    67    1
   69    67    68    1
   70    67    69    1
   71    69    70    1
   72    67    71    1
   73    71    72    1
   74    71    73    1
   75    73    74    1
   76    45    75    1
   77    71    75    1
   78    75    76    1
   79    75    77    1
   80    77    78    1
   81    64    79    1
   82    77    79    1
   83    77    80    1
   84    80    81    1
   85    80    82    1
   86    80    83    1
   87    83    84    1
   88    85    86    1
   89    85    87    1
   90    85    88    1
   91    88    89    1
   92    88    90    1
   93    90    91    1
   94    88    92    1
   95    92    93    1
   96    92    94    1
   97    94    95    1
   98    66    96    1
   99    92    96    1
  100    96    97    1
  101    96    98    1
  102    98    99    1
  103    85   100    1
  104    98   100    1
  105    98   101    1
  106   101   102    1
  107   101   103    1
  108   101   104    1
  109   104   105    1
  110   106   107    1
  111    12   108    1
  112   106   108    1
  113   106   109    1
  114   109   110    1
  115   109   111    1
  116   111   112    1
  117   109   113    1
  118   113   114    1
  119   113   115    1
  120   115   116    1
  121    87   117    1
  122   113   117    1
  123   117   118    1
  124   117   119    1
  125   119   120    1
  126   106   121    1
  127   119   121    1
  128   119   122    1
  129   122   123    1
  130   122   124    1
  131   122   125    1
  132   125   126    1
  133   127   128    1
  134   127   129    2
  135   127   130    1
  136   130   131    1
  137   130   132    1
  138   130   133    1
  139   133   134    1
  140   133   135    2
  141   135   136    1
  142   135   137    1
  143   137   138    1
  144   137   139    1
  145   137   140    1
  146   140   141    1
  147   140   142    1
  148   140   143    1
@<TRIPOS>SUBSTRUCTURE
       1 MOL1            1 RESIDUE      1      MOL     
       2 MOL1          143 RESIDUE      1      MOL     
@<SCITEGIC>MOL_PROPERTY
VM2 Rank
SciTegic.value.IntegerValue
8

@<SCITEGIC>MOL_PROPERTY
Conf_Id
SciTegic.value.IntegerValue
9485

@<SCITEGIC>MOL_PROPERTY
Probability
SciTegic.value.DoubleValue
0.92

@<SCITEGIC>MOL_PROPERTY
Sum Probability
SciTegic.value.DoubleValue
8.90

@<SCITEGIC>MOL_PROPERTY
Delta G
SciTegic.value.DoubleValue
0.293

@<SCITEGIC>MOL_PROPERTY
G
SciTegic.value.DoubleValue
490.558

@<SCITEGIC>MOL_PROPERTY
E
SciTegic.value.DoubleValue
305.269

@<SCITEGIC>MOL_PROPERTY
-TS
SciTegic.value.DoubleValue
185.290

@<SCITEGIC>MOL_PROPERTY
U+W
SciTegic.value.DoubleValue
179.181

@<SCITEGIC>MOL_PROPERTY
U
SciTegic.value.DoubleValue
241.841

@<SCITEGIC>MOL_PROPERTY
W
SciTegic.value.DoubleValue
-62.661

@<SCITEGIC>MOL_PROPERTY
W(PB)
SciTegic.value.DoubleValue
-68.659

@<SCITEGIC>MOL_PROPERTY
W(SA)
SciTegic.value.DoubleValue
5.998

@<SCITEGIC>MOL_PROPERTY
Valence
SciTegic.value.DoubleValue
158.079

@<SCITEGIC>MOL_PROPERTY
Coulomb
SciTegic.value.DoubleValue
103.929

@<SCITEGIC>MOL_PROPERTY
VdW
SciTegic.value.DoubleValue
-20.167

@<SCITEGIC>MOL_PROPERTY
VdW6
SciTegic.value.DoubleValue
-181.604

@<SCITEGIC>MOL_PROPERTY
VdW12
SciTegic.value.DoubleValue
161.437

@<SCITEGIC>MOL_PROPERTY
Bond
SciTegic.value.DoubleValue
5.208

@<SCITEGIC>MOL_PROPERTY
Angle
SciTegic.value.DoubleValue
12.837

@<SCITEGIC>MOL_PROPERTY
Pdih
SciTegic.value.DoubleValue
140.032

@<SCITEGIC>MOL_PROPERTY
Idih
SciTegic.value.DoubleValue
0.003

@<SCITEGIC>MOL_PROPERTY
Tether
SciTegic.value.DoubleValue
0.000

