@<TRIPOS>MOLECULE
CD_guest-7_vm2_rndm.mol2 : vm2 host+ligand conformer 1
         145         150           2
SMALL
USER_CHARGES
 
@<TRIPOS>ATOM
       1    C1      16.191295   15.292064   21.721360 C.3        1 MOL1         0.2972
       2    H1      15.121446   15.120992   21.895741 H          1 MOL1         0.0751
       3    O1      16.442917   16.614030   21.206235 O.3        1 MOL1        -0.3740
       4    C2      16.985732   15.098974   23.036861 C.3        1 MOL1         0.1003
       5    H2      16.836971   14.059235   23.356170 H          1 MOL1         0.0783
       6    O2      16.521032   15.973795   24.073233 O.3        1 MOL1        -0.5519
       7    H3      17.221538   15.928745   24.762670 H          1 MOL1         0.3769
       8    C3      18.499207   15.306652   22.805145 C.3        1 MOL1         0.1053
       9    H4      18.672452   16.362774   22.557787 H          1 MOL1         0.0783
      10    O3      19.204231   14.952341   24.000364 O.3        1 MOL1        -0.5519
      11    H5      20.103469   14.657306   23.719877 H          1 MOL1         0.3769
      12    C4      19.013426   14.446809   21.625051 C.3        1 MOL1         0.1018
      13    H6      19.088140   13.403643   21.961041 H          1 MOL1         0.0783
      14    C5      18.091728   14.538698   20.374591 C.3        1 MOL1         0.1043
      15    H7      18.214082   15.535045   19.929478 H          1 MOL1         0.0783
      16    O4      16.706806   14.344065   20.761740 O.3        1 MOL1        -0.3740
      17    C6      18.423382   13.497767   19.282199 C.3        1 MOL1         0.0138
      18    H8      19.424980   13.704145   18.882334 H          1 MOL1         0.0794
      19    H9      17.712106   13.617076   18.453980 H          1 MOL1         0.0794
      20    O5      18.362692   12.165792   19.800722 O.3        1 MOL1        -0.5486
      21    H10     17.455823   12.052610   20.163012 H          1 MOL1         0.3769
      22    C7      14.655051   20.239144   20.494744 C.3        1 MOL1         0.2972
      23    H11     14.045735   21.102160   20.196939 H          1 MOL1         0.0751
      24    O6      15.989355   20.636837   20.877401 O.3        1 MOL1        -0.3740
      25    C8      13.989231   19.451939   21.653428 C.3        1 MOL1         0.1003
      26    H12     13.049514   19.038454   21.265559 H          1 MOL1         0.0783
      27    O7      13.685467   20.316416   22.758330 O.3        1 MOL1        -0.5519
      28    H13     14.549706   20.577342   23.163057 H          1 MOL1         0.3769
      29    C9      14.892142   18.260566   22.073227 C.3        1 MOL1         0.1053
      30    H14     15.810930   18.669286   22.516631 H          1 MOL1         0.0783
      31    O8      14.219341   17.436930   23.032649 O.3        1 MOL1        -0.5519
      32    H15     14.928288   16.926733   23.496171 H          1 MOL1         0.3769
      33    C10     15.289449   17.394986   20.842679 C.3        1 MOL1         0.1018
      34    H16     14.443515   16.755238   20.557678 H          1 MOL1         0.0783
      35    C11     15.710896   18.227921   19.601719 C.3        1 MOL1         0.1043
      36    H17     16.721296   18.621879   19.764692 H          1 MOL1         0.0783
      37    O9      14.776373   19.315927   19.393425 O.3        1 MOL1        -0.3740
      38    C12     15.731661   17.372576   18.318001 C.3        1 MOL1         0.0138
      39    H18     14.715947   17.013076   18.105739 H          1 MOL1         0.0794
      40    H19     16.371004   16.494316   18.479319 H          1 MOL1         0.0794
      41    O10     16.229149   18.143936   17.223118 O.3        1 MOL1        -0.5486
      42    H20     15.725489   18.988156   17.235841 H          1 MOL1         0.3769
      43    C13     18.378623   23.789010   21.997211 C.3        1 MOL1         0.2972
      44    H21     18.816148   24.741606   22.320877 H          1 MOL1         0.0751
      45    O11     19.382257   22.892627   21.472658 O.3        1 MOL1        -0.3740
      46    C14     17.671689   23.094747   23.187488 C.3        1 MOL1         0.1003
      47    H22     16.864401   23.758222   23.523380 H          1 MOL1         0.0783
      48    O12     18.606440   22.912381   24.265237 O.3        1 MOL1        -0.5519
      49    H23     18.339534   22.102787   24.773903 H          1 MOL1         0.3769
      50    C15     17.025364   21.758235   22.735131 C.3        1 MOL1         0.1053
      51    H24     17.828484   21.049521   22.497547 H          1 MOL1         0.0783
      52    O13     16.204690   21.232873   23.785841 O.3        1 MOL1        -0.5519
      53    H25     16.819441   20.901734   24.491871 H          1 MOL1         0.3769
      54    C16     16.153872   21.942682   21.462029 C.3        1 MOL1         0.1018
      55    H26     15.192353   22.385118   21.754355 H          1 MOL1         0.0783
      56    C17     16.831591   22.823290   20.375650 C.3        1 MOL1         0.1043
      57    H27     17.632919   22.234493   19.910920 H          1 MOL1         0.0783
      58    O14     17.389784   24.017575   20.972828 O.3        1 MOL1        -0.3740
      59    C18     15.868565   23.263561   19.250739 C.3        1 MOL1         0.0138
      60    H28     15.521329   22.374154   18.708464 H          1 MOL1         0.0794
      61    H29     16.423541   23.885658   18.535683 H          1 MOL1         0.0794
      62    O15     14.752686   23.987542   19.777281 O.3        1 MOL1        -0.5486
      63    H30     15.128965   24.744978   20.278614 H          1 MOL1         0.3769
      64    C19     23.542654   22.720023   21.114763 C.3        1 MOL1         0.2972
      65    H31     24.593677   22.941088   20.888864 H          1 MOL1         0.0751
      66    O16     23.359156   21.349643   21.515046 O.3        1 MOL1        -0.3740
      67    C20     23.022879   23.630235   22.257005 C.3        1 MOL1         0.1003
      68    H32     23.127945   24.670709   21.923249 H          1 MOL1         0.0783
      69    O17     23.779232   23.440076   23.461213 O.3        1 MOL1        -0.5519
      70    H33     23.283430   23.944322   24.145190 H          1 MOL1         0.3769
      71    C21     21.523675   23.366605   22.536619 C.3        1 MOL1         0.1053
      72    H34     21.430526   22.347174   22.933729 H          1 MOL1         0.0783
      73    O18     21.056773   24.306466   23.511882 O.3        1 MOL1        -0.5519
      74    H35     20.227452   23.915677   23.885448 H          1 MOL1         0.3769
      75    C22     20.686677   23.454643   21.229260 C.3        1 MOL1         0.1018
      76    H36     20.613792   24.500340   20.902353 H          1 MOL1         0.0783
      77    C23     21.321905   22.613471   20.089278 C.3        1 MOL1         0.1043
      78    H37     21.218504   21.549298   20.341036 H          1 MOL1         0.0783
      79    O19     22.723288   22.956181   19.950665 O.3        1 MOL1        -0.3740
      80    C24     20.650164   22.841636   18.717043 C.3        1 MOL1         0.0138
      81    H38     19.590229   22.565867   18.784906 H          1 MOL1         0.0794
      82    H39     21.116479   22.172138   17.982087 H          1 MOL1         0.0794
      83    O20     20.780855   24.203812   18.299485 O.3        1 MOL1        -0.5486
      84    H40     21.740765   24.410383   18.347380 H          1 MOL1         0.3769
      85    C25     25.191520   17.684849   21.739127 C.3        1 MOL1         0.2972
      86    H41     25.863699   16.819371   21.794892 H          1 MOL1         0.0751
      87    O21     23.816256   17.288109   21.566762 O.3        1 MOL1        -0.3740
      88    C26     25.306572   18.531914   23.029729 C.3        1 MOL1         0.1003
      89    H42     26.338064   18.902881   23.089228 H          1 MOL1         0.0783
      90    O22     25.018999   17.749949   24.196915 O.3        1 MOL1        -0.5519
      91    H43     24.928486   18.410686   24.920174 H          1 MOL1         0.3769
      92    C27     24.364102   19.754415   22.964952 C.3        1 MOL1         0.1053
      93    H44     23.330553   19.387127   22.998425 H          1 MOL1         0.0783
      94    O23     24.613894   20.613878   24.083749 O.3        1 MOL1        -0.5519
      95    H45     24.169164   21.473828   23.882695 H          1 MOL1         0.3769
      96    C28     24.549683   20.554093   21.651850 C.3        1 MOL1         0.1018
      97    H46     25.451253   21.173682   21.748019 H          1 MOL1         0.0783
      98    C29     24.653484   19.652788   20.388041 C.3        1 MOL1         0.1043
      99    H47     23.649920   19.272814   20.154669 H          1 MOL1         0.0783
     100    O24     25.550540   18.540084   20.633678 O.3        1 MOL1        -0.3740
     101    C30     25.170423   20.402053   19.139855 C.3        1 MOL1         0.0138
     102    H48     24.452112   21.186005   18.866878 H          1 MOL1         0.0794
     103    H49     25.217370   19.696342   18.299685 H          1 MOL1         0.0794
     104    O25     26.459583   20.974450   19.378910 O.3        1 MOL1        -0.5486
     105    H50     27.043282   20.231080   19.649718 H          1 MOL1         0.3769
     106    C31     21.331748   14.023821   20.961484 C.3        1 MOL1         0.2972
     107    H51     20.905581   13.046674   20.700154 H          1 MOL1         0.0751
     108    O26     20.300332   14.984829   21.263242 O.3        1 MOL1        -0.3740
     109    C32     22.292742   13.901303   22.174400 C.3        1 MOL1         0.1003
     110    H52     23.093905   13.208684   21.885292 H          1 MOL1         0.0783
     111    O27     21.625724   13.387476   23.334135 O.3        1 MOL1        -0.5519
     112    H53     22.293170   13.451548   24.054134 H          1 MOL1         0.3769
     113    C33     22.943090   15.264436   22.508334 C.3        1 MOL1         0.1053
     114    H54     22.155682   15.939323   22.872249 H          1 MOL1         0.0783
     115    O28     23.937024   15.083881   23.524551 O.3        1 MOL1        -0.5519
     116    H55     24.257860   15.987971   23.768601 H          1 MOL1         0.3769
     117    C34     23.583705   15.904022   21.251218 C.3        1 MOL1         0.1018
     118    H56     24.512758   15.374046   21.002809 H          1 MOL1         0.0783
     119    C35     22.638116   15.870467   20.022016 C.3        1 MOL1         0.1043
     120    H57     21.824937   16.586316   20.192773 H          1 MOL1         0.0783
     121    O29     22.096941   14.536688   19.850997 O.3        1 MOL1        -0.3740
     122    C36     23.345291   16.259872   18.705224 C.3        1 MOL1         0.0138
     123    H58     23.754149   17.273775   18.802010 H          1 MOL1         0.0794
     124    H59     22.600319   16.280783   17.898669 H          1 MOL1         0.0794
     125    O30     24.390852   15.335145   18.391257 O.3        1 MOL1        -0.5486
     126    H60     23.976347   14.443701   18.403578 H          1 MOL1         0.3769
     127    C1      18.957215   19.476147   25.466737 C.2        1 MOL1         0.6115
     128    O1      19.548450   19.033613   26.431502 O.co2      1 MOL1        -0.6776
     129    O2      18.205322   20.432100   25.513382 O.co2      1 MOL1        -0.6776
     130    C2      19.182032   18.812278   24.112135 C.3        1 MOL1        -0.2013
     131    H1      18.225416   18.804229   23.578571 H          1 MOL1         0.0727
     132    H2      19.462272   17.768767   24.293688 H          1 MOL1         0.0727
     133    C3      20.281018   19.514075   23.272868 C.3        1 MOL1        -0.1910
     134    H3      20.018131   20.569315   23.130206 H          1 MOL1         0.0729
     135    H4      21.213635   19.504529   23.851694 H          1 MOL1         0.0729
     136    C4      20.531549   18.848564   21.898780 C.3        1 MOL1        -0.1909
     137    H5      20.706725   17.773723   22.036331 H          1 MOL1         0.0729
     138    H6      21.453503   19.262334   21.471124 H          1 MOL1         0.0729
     139    C5      19.376296   19.071706   20.898411 C.3        1 MOL1        -0.1884
     140    H7      18.451248   18.631422   21.290571 H          1 MOL1         0.0729
     141    H8      19.192728   20.147604   20.781520 H          1 MOL1         0.0729
     142    C6      19.687870   18.458417   19.518731 C.3        1 MOL1        -0.2899
     143    H9      18.889157   18.688924   18.802317 H          1 MOL1         0.0741
     144    H10     20.628645   18.854176   19.115481 H          1 MOL1         0.0741
     145    H11     19.771380   17.367232   19.588360 H          1 MOL1         0.0741
@<TRIPOS>BOND
    1     1     2    1
    2     1     3    1
    3     1     4    1
    4     4     5    1
    5     4     6    1
    6     6     7    1
    7     4     8    1
    8     8     9    1
    9     8    10    1
   10    10    11    1
   11     8    12    1
   12    12    13    1
   13    12    14    1
   14    14    15    1
   15     1    16    1
   16    14    16    1
   17    14    17    1
   18    17    18    1
   19    17    19    1
   20    17    20    1
   21    20    21    1
   22    22    23    1
   23    22    24    1
   24    22    25    1
   25    25    26    1
   26    25    27    1
   27    27    28    1
   28    25    29    1
   29    29    30    1
   30    29    31    1
   31    31    32    1
   32     3    33    1
   33    29    33    1
   34    33    34    1
   35    33    35    1
   36    35    36    1
   37    22    37    1
   38    35    37    1
   39    35    38    1
   40    38    39    1
   41    38    40    1
   42    38    41    1
   43    41    42    1
   44    43    44    1
   45    43    45    1
   46    43    46    1
   47    46    47    1
   48    46    48    1
   49    48    49    1
   50    46    50    1
   51    50    51    1
   52    50    52    1
   53    52    53    1
   54    24    54    1
   55    50    54    1
   56    54    55    1
   57    54    56    1
   58    56    57    1
   59    43    58    1
   60    56    58    1
   61    56    59    1
   62    59    60    1
   63    59    61    1
   64    59    62    1
   65    62    63    1
   66    64    65    1
   67    64    66    1
   68    64    67    1
   69    67    68    1
   70    67    69    1
   71    69    70    1
   72    67    71    1
   73    71    72    1
   74    71    73    1
   75    73    74    1
   76    45    75    1
   77    71    75    1
   78    75    76    1
   79    75    77    1
   80    77    78    1
   81    64    79    1
   82    77    79    1
   83    77    80    1
   84    80    81    1
   85    80    82    1
   86    80    83    1
   87    83    84    1
   88    85    86    1
   89    85    87    1
   90    85    88    1
   91    88    89    1
   92    88    90    1
   93    90    91    1
   94    88    92    1
   95    92    93    1
   96    92    94    1
   97    94    95    1
   98    66    96    1
   99    92    96    1
  100    96    97    1
  101    96    98    1
  102    98    99    1
  103    85   100    1
  104    98   100    1
  105    98   101    1
  106   101   102    1
  107   101   103    1
  108   101   104    1
  109   104   105    1
  110   106   107    1
  111    12   108    1
  112   106   108    1
  113   106   109    1
  114   109   110    1
  115   109   111    1
  116   111   112    1
  117   109   113    1
  118   113   114    1
  119   113   115    1
  120   115   116    1
  121    87   117    1
  122   113   117    1
  123   117   118    1
  124   117   119    1
  125   119   120    1
  126   106   121    1
  127   119   121    1
  128   119   122    1
  129   122   123    1
  130   122   124    1
  131   122   125    1
  132   125   126    1
  133   127   128    1
  134   127   129    2
  135   127   130    1
  136   130   131    1
  137   130   132    1
  138   130   133    1
  139   133   134    1
  140   133   135    1
  141   133   136    1
  142   136   137    1
  143   136   138    1
  144   136   139    1
  145   139   140    1
  146   139   141    1
  147   139   142    1
  148   142   143    1
  149   142   144    1
  150   142   145    1
@<TRIPOS>SUBSTRUCTURE
       1 MOL1            1 RESIDUE      1      MOL     
       2 MOL1          145 RESIDUE      1      MOL     
@<SCITEGIC>MOL_PROPERTY
VM2 Rank
SciTegic.value.IntegerValue
1

@<SCITEGIC>MOL_PROPERTY
Conf_Id
SciTegic.value.IntegerValue
26061

@<SCITEGIC>MOL_PROPERTY
Probability
SciTegic.value.DoubleValue
4.31

@<SCITEGIC>MOL_PROPERTY
Sum Probability
SciTegic.value.DoubleValue
4.31

@<SCITEGIC>MOL_PROPERTY
Delta G
SciTegic.value.DoubleValue
0.000

@<SCITEGIC>MOL_PROPERTY
G
SciTegic.value.DoubleValue
488.790

@<SCITEGIC>MOL_PROPERTY
E
SciTegic.value.DoubleValue
301.578

@<SCITEGIC>MOL_PROPERTY
-TS
SciTegic.value.DoubleValue
187.212

@<SCITEGIC>MOL_PROPERTY
U+W
SciTegic.value.DoubleValue
173.702

@<SCITEGIC>MOL_PROPERTY
U
SciTegic.value.DoubleValue
248.110

@<SCITEGIC>MOL_PROPERTY
W
SciTegic.value.DoubleValue
-74.408

@<SCITEGIC>MOL_PROPERTY
W(PB)
SciTegic.value.DoubleValue
-80.556

@<SCITEGIC>MOL_PROPERTY
W(SA)
SciTegic.value.DoubleValue
6.148

@<SCITEGIC>MOL_PROPERTY
Valence
SciTegic.value.DoubleValue
149.400

@<SCITEGIC>MOL_PROPERTY
Coulomb
SciTegic.value.DoubleValue
123.107

@<SCITEGIC>MOL_PROPERTY
VdW
SciTegic.value.DoubleValue
-24.397

@<SCITEGIC>MOL_PROPERTY
VdW6
SciTegic.value.DoubleValue
-178.512

@<SCITEGIC>MOL_PROPERTY
VdW12
SciTegic.value.DoubleValue
154.115

@<SCITEGIC>MOL_PROPERTY
Bond
SciTegic.value.DoubleValue
4.539

@<SCITEGIC>MOL_PROPERTY
Angle
SciTegic.value.DoubleValue
11.660

@<SCITEGIC>MOL_PROPERTY
Pdih
SciTegic.value.DoubleValue
133.201

@<SCITEGIC>MOL_PROPERTY
Idih
SciTegic.value.DoubleValue
0.001

@<SCITEGIC>MOL_PROPERTY
Tether
SciTegic.value.DoubleValue
0.000

