@<TRIPOS>MOLECULE
CD_guest-8_vm2_rndm.mol2 : vm2 host+ligand conformer 1
         151         156           2
SMALL
USER_CHARGES
 
@<TRIPOS>ATOM
       1    C1      16.335232   15.301515   20.753924 C.3        1 MOL1         0.2972
       2    H1      15.289402   15.166492   20.449569 H          1 MOL1         0.0751
       3    O1      16.558232   16.607137   21.319903 O.3        1 MOL1        -0.3740
       4    C2      16.737339   14.233668   21.805849 C.3        1 MOL1         0.1003
       5    H2      16.569491   13.248555   21.351515 H          1 MOL1         0.0783
       6    O2      15.944015   14.346294   22.995676 O.3        1 MOL1        -0.5519
       7    H3      16.363771   13.726088   23.633435 H          1 MOL1         0.3769
       8    C3      18.237813   14.339600   22.169936 C.3        1 MOL1         0.1053
       9    H4      18.394462   15.285658   22.706960 H          1 MOL1         0.0783
      10    O3      18.607323   13.235214   23.005475 O.3        1 MOL1        -0.5519
      11    H5      19.564591   13.353920   23.227436 H          1 MOL1         0.3769
      12    C4      19.121516   14.355444   20.899152 C.3        1 MOL1         0.1018
      13    H6      19.125006   13.354995   20.446578 H          1 MOL1         0.0783
      14    C5      18.613017   15.380610   19.853465 C.3        1 MOL1         0.1043
      15    H7      18.771113   16.390919   20.251133 H          1 MOL1         0.0783
      16    O4      17.202912   15.157095   19.609776 O.3        1 MOL1        -0.3740
      17    C6      19.338360   15.275340   18.493443 C.3        1 MOL1         0.0138
      18    H8      20.409799   15.458667   18.639529 H          1 MOL1         0.0794
      19    H9      18.959015   16.063433   17.829607 H          1 MOL1         0.0794
      20    O5      19.134864   13.988738   17.902087 O.3        1 MOL1        -0.5486
      21    H10     18.161609   13.854159   17.875403 H          1 MOL1         0.3769
      22    C7      14.664474   20.274630   21.790413 C.3        1 MOL1         0.2972
      23    H11     13.934653   21.087659   21.889161 H          1 MOL1         0.0751
      24    O6      16.015228   20.771723   21.725895 O.3        1 MOL1        -0.3740
      25    C8      14.543384   19.305543   22.994194 C.3        1 MOL1         0.1003
      26    H12     13.521157   18.905361   22.987398 H          1 MOL1         0.0783
      27    O7      14.773751   19.981029   24.237781 O.3        1 MOL1        -0.5519
      28    H13     14.842163   19.258317   24.901795 H          1 MOL1         0.3769
      29    C9      15.517603   18.113291   22.855415 C.3        1 MOL1         0.1053
      30    H14     16.542450   18.490468   22.969610 H          1 MOL1         0.0783
      31    O8      15.234373   17.147684   23.875369 O.3        1 MOL1        -0.5519
      32    H15     15.667420   16.304768   23.593480 H          1 MOL1         0.3769
      33    C10     15.392329   17.440127   21.467291 C.3        1 MOL1         0.1018
      34    H16     14.465984   16.850323   21.456757 H          1 MOL1         0.0783
      35    C11     15.374847   18.467724   20.299630 C.3        1 MOL1         0.1043
      36    H17     16.380027   18.898569   20.197605 H          1 MOL1         0.0783
      37    O9      14.415597   19.516624   20.587941 O.3        1 MOL1        -0.3740
      38    C12     14.988545   17.851478   18.936582 C.3        1 MOL1         0.0138
      39    H18     15.758700   17.129983   18.635313 H          1 MOL1         0.0794
      40    H19     14.977624   18.648172   18.180704 H          1 MOL1         0.0794
      41    O10     13.710012   17.212523   19.002688 O.3        1 MOL1        -0.5486
      42    H20     13.075545   17.899986   19.304507 H          1 MOL1         0.3769
      43    C13     18.358352   24.155007   21.379575 C.3        1 MOL1         0.2972
      44    H21     18.760919   25.169960   21.271424 H          1 MOL1         0.0751
      45    O11     19.398610   23.156693   21.335484 O.3        1 MOL1        -0.3740
      46    C14     17.597357   24.027874   22.722294 C.3        1 MOL1         0.1003
      47    H22     16.764899   24.743021   22.695754 H          1 MOL1         0.0783
      48    O12     18.442568   24.333669   23.839287 O.3        1 MOL1        -0.5519
      49    H23     17.925563   24.046205   24.625374 H          1 MOL1         0.3769
      50    C15     17.001152   22.611908   22.882586 C.3        1 MOL1         0.1053
      51    H24     17.832834   21.903862   22.995817 H          1 MOL1         0.0783
      52    O13     16.165990   22.576307   24.046119 O.3        1 MOL1        -0.5519
      53    H25     15.785747   21.663715   24.095683 H          1 MOL1         0.3769
      54    C16     16.178581   22.199452   21.636015 C.3        1 MOL1         0.1018
      55    H26     15.217596   22.730379   21.652858 H          1 MOL1         0.0783
      56    C17     16.904525   22.510026   20.297174 C.3        1 MOL1         0.1043
      57    H27     17.727169   21.797897   20.160028 H          1 MOL1         0.0783
      58    O14     17.415021   23.867230   20.325498 O.3        1 MOL1        -0.3740
      59    C18     15.964016   22.393633   19.080303 C.3        1 MOL1         0.0138
      60    H28     15.153784   23.128721   19.175648 H          1 MOL1         0.0794
      61    H29     15.510322   21.394246   19.066236 H          1 MOL1         0.0794
      62    O15     16.698309   22.609760   17.873614 O.3        1 MOL1        -0.5486
      63    H30     17.184711   23.455518   17.997614 H          1 MOL1         0.3769
      64    C19     23.455876   22.606817   20.674485 C.3        1 MOL1         0.2972
      65    H31     24.507551   22.694707   20.373475 H          1 MOL1         0.0751
      66    O16     23.146864   21.268954   21.113787 O.3        1 MOL1        -0.3740
      67    C20     23.115708   23.621018   21.801420 C.3        1 MOL1         0.1003
      68    H32     23.302367   24.624336   21.397910 H          1 MOL1         0.0783
      69    O17     23.960634   23.420034   22.945727 O.3        1 MOL1        -0.5519
      70    H33     23.702332   22.550497   23.341777 H          1 MOL1         0.3769
      71    C21     21.613510   23.539623   22.185146 C.3        1 MOL1         0.1053
      72    H34     21.439339   22.573074   22.678313 H          1 MOL1         0.0783
      73    O18     21.267116   24.611296   23.071225 O.3        1 MOL1        -0.5519
      74    H35     20.333515   24.452841   23.356611 H          1 MOL1         0.3769
      75    C22     20.703014   23.615177   20.931521 C.3        1 MOL1         0.1018
      76    H36     20.680542   24.650267   20.565988 H          1 MOL1         0.0783
      77    C23     21.182622   22.692224   19.781296 C.3        1 MOL1         0.1043
      78    H37     20.995403   21.652216   20.071298 H          1 MOL1         0.0783
      79    O19     22.598518   22.897560   19.550995 O.3        1 MOL1        -0.3740
      80    C24     20.445159   22.943681   18.447914 C.3        1 MOL1         0.0138
      81    H38     19.375107   22.747030   18.589598 H          1 MOL1         0.0794
      82    H39     20.813293   22.226756   17.701818 H          1 MOL1         0.0794
      83    O20     20.645114   24.284737   17.991182 O.3        1 MOL1        -0.5486
      84    H40     21.618347   24.415104   17.949515 H          1 MOL1         0.3769
      85    C25     24.919941   17.715402   22.280873 C.3        1 MOL1         0.2972
      86    H41     25.585994   16.918544   22.635331 H          1 MOL1         0.0751
      87    O21     23.710938   17.182311   21.701484 O.3        1 MOL1        -0.3740
      88    C26     24.540823   18.660210   23.450195 C.3        1 MOL1         0.1003
      89    H42     25.466784   19.125963   23.811377 H          1 MOL1         0.0783
      90    O22     23.952252   17.904686   24.520479 O.3        1 MOL1        -0.5519
      91    H43     23.264573   18.475096   24.951803 H          1 MOL1         0.3769
      92    C27     23.607409   19.794232   22.950850 C.3        1 MOL1         0.1053
      93    H44     22.654397   19.346260   22.645127 H          1 MOL1         0.0783
      94    O23     23.381178   20.750202   23.995778 O.3        1 MOL1        -0.5519
      95    H45     22.719692   20.338471   24.612140 H          1 MOL1         0.3769
      96    C28     24.214755   20.513847   21.717819 C.3        1 MOL1         0.1018
      97    H46     25.032513   21.162178   22.058821 H          1 MOL1         0.0783
      98    C29     24.743987   19.521142   20.644011 C.3        1 MOL1         0.1043
      99    H47     23.880103   19.044064   20.162149 H          1 MOL1         0.0783
     100    O24     25.574629   18.512493   21.271547 O.3        1 MOL1        -0.3740
     101    C30     25.580602   20.192047   19.531901 C.3        1 MOL1         0.0138
     102    H48     24.934175   20.866030   18.954392 H          1 MOL1         0.0794
     103    H49     25.937588   19.415039   18.842685 H          1 MOL1         0.0794
     104    O25     26.686479   20.915726   20.079315 O.3        1 MOL1        -0.5486
     105    H50     27.208171   20.266984   20.602122 H          1 MOL1         0.3769
     106    C31     21.478301   13.775399   21.198921 C.3        1 MOL1         0.2972
     107    H51     21.070920   12.773230   21.015632 H          1 MOL1         0.0751
     108    O26     20.436272   14.767026   21.316133 O.3        1 MOL1        -0.3740
     109    C32     22.312083   13.775333   22.501987 C.3        1 MOL1         0.1003
     110    H52     23.148392   13.078858   22.358081 H          1 MOL1         0.0783
     111    O27     21.523805   13.343681   23.620065 O.3        1 MOL1        -0.5519
     112    H53     22.083147   13.535231   24.406151 H          1 MOL1         0.3769
     113    C33     22.901076   15.177141   22.779243 C.3        1 MOL1         0.1053
     114    H54     22.065165   15.846026   23.021444 H          1 MOL1         0.0783
     115    O28     23.794346   15.096720   23.895611 O.3        1 MOL1        -0.5519
     116    H55     23.923097   16.026012   24.210371 H          1 MOL1         0.3769
     117    C34     23.637327   15.753254   21.537519 C.3        1 MOL1         0.1018
     118    H56     24.634358   15.300977   21.453353 H          1 MOL1         0.0783
     119    C35     22.865280   15.524754   20.208733 C.3        1 MOL1         0.1043
     120    H57     22.025159   16.228586   20.177724 H          1 MOL1         0.0783
     121    O29     22.361875   14.168430   20.129908 O.3        1 MOL1        -0.3740
     122    C36     23.735119   15.778648   18.957873 C.3        1 MOL1         0.0138
     123    H58     24.112136   16.809747   18.986223 H          1 MOL1         0.0794
     124    H59     23.104545   15.681968   18.063893 H          1 MOL1         0.0794
     125    O30     24.826141   14.855609   18.896224 O.3        1 MOL1        -0.5486
     126    H60     24.427042   13.959370   18.961479 H          1 MOL1         0.3769
     127    C1      20.606874   18.473958   25.253720 C.2        1 MOL1         0.6168
     128    O1      21.617963   19.129064   25.433611 O.co2      1 MOL1        -0.6703
     129    O2      19.923409   18.021653   26.150564 O.co2      1 MOL1        -0.6703
     130    C2      20.169528   18.221048   23.814240 C.3        1 MOL1        -0.1963
     131    H1      19.419681   17.421005   23.812272 H          1 MOL1         0.0750
     132    H2      21.039885   17.850974   23.265195 H          1 MOL1         0.0750
     133    C3      19.596274   19.491450   23.138377 C.3        1 MOL1        -0.1860
     134    H3      18.733193   19.838054   23.722491 H          1 MOL1         0.0752
     135    H4      20.340683   20.298524   23.178373 H          1 MOL1         0.0752
     136    C4      19.154934   19.273456   21.674290 C.3        1 MOL1        -0.1858
     137    H5      18.683997   20.198503   21.326077 H          1 MOL1         0.0752
     138    H6      18.388641   18.492220   21.627043 H          1 MOL1         0.0752
     139    C5      20.315402   18.911482   20.724423 C.3        1 MOL1        -0.1858
     140    H7      21.160953   19.581173   20.912913 H          1 MOL1         0.0752
     141    H8      20.664699   17.893800   20.937035 H          1 MOL1         0.0752
     142    C6      19.896053   19.026442   19.243194 C.3        1 MOL1        -0.1858
     143    H9      19.497630   20.031323   19.050884 H          1 MOL1         0.0752
     144    H10     19.081225   18.323351   19.030507 H          1 MOL1         0.0752
     145    C7      21.083193   18.762101   18.295490 C.3        1 MOL1        -0.1834
     146    H11     21.888368   19.480309   18.504251 H          1 MOL1         0.0752
     147    H12     21.490678   17.761253   18.481199 H          1 MOL1         0.0752
     148    C8      20.664629   18.876630   16.816993 C.3        1 MOL1        -0.2849
     149    H13     20.277705   19.879713   16.595460 H          1 MOL1         0.0764
     150    H14     21.521454   18.690050   16.156988 H          1 MOL1         0.0764
     151    H15     19.882377   18.146695   16.572261 H          1 MOL1         0.0764
@<TRIPOS>BOND
    1     1     2    1
    2     1     3    1
    3     1     4    1
    4     4     5    1
    5     4     6    1
    6     6     7    1
    7     4     8    1
    8     8     9    1
    9     8    10    1
   10    10    11    1
   11     8    12    1
   12    12    13    1
   13    12    14    1
   14    14    15    1
   15     1    16    1
   16    14    16    1
   17    14    17    1
   18    17    18    1
   19    17    19    1
   20    17    20    1
   21    20    21    1
   22    22    23    1
   23    22    24    1
   24    22    25    1
   25    25    26    1
   26    25    27    1
   27    27    28    1
   28    25    29    1
   29    29    30    1
   30    29    31    1
   31    31    32    1
   32     3    33    1
   33    29    33    1
   34    33    34    1
   35    33    35    1
   36    35    36    1
   37    22    37    1
   38    35    37    1
   39    35    38    1
   40    38    39    1
   41    38    40    1
   42    38    41    1
   43    41    42    1
   44    43    44    1
   45    43    45    1
   46    43    46    1
   47    46    47    1
   48    46    48    1
   49    48    49    1
   50    46    50    1
   51    50    51    1
   52    50    52    1
   53    52    53    1
   54    24    54    1
   55    50    54    1
   56    54    55    1
   57    54    56    1
   58    56    57    1
   59    43    58    1
   60    56    58    1
   61    56    59    1
   62    59    60    1
   63    59    61    1
   64    59    62    1
   65    62    63    1
   66    64    65    1
   67    64    66    1
   68    64    67    1
   69    67    68    1
   70    67    69    1
   71    69    70    1
   72    67    71    1
   73    71    72    1
   74    71    73    1
   75    73    74    1
   76    45    75    1
   77    71    75    1
   78    75    76    1
   79    75    77    1
   80    77    78    1
   81    64    79    1
   82    77    79    1
   83    77    80    1
   84    80    81    1
   85    80    82    1
   86    80    83    1
   87    83    84    1
   88    85    86    1
   89    85    87    1
   90    85    88    1
   91    88    89    1
   92    88    90    1
   93    90    91    1
   94    88    92    1
   95    92    93    1
   96    92    94    1
   97    94    95    1
   98    66    96    1
   99    92    96    1
  100    96    97    1
  101    96    98    1
  102    98    99    1
  103    85   100    1
  104    98   100    1
  105    98   101    1
  106   101   102    1
  107   101   103    1
  108   101   104    1
  109   104   105    1
  110   106   107    1
  111    12   108    1
  112   106   108    1
  113   106   109    1
  114   109   110    1
  115   109   111    1
  116   111   112    1
  117   109   113    1
  118   113   114    1
  119   113   115    1
  120   115   116    1
  121    87   117    1
  122   113   117    1
  123   117   118    1
  124   117   119    1
  125   119   120    1
  126   106   121    1
  127   119   121    1
  128   119   122    1
  129   122   123    1
  130   122   124    1
  131   122   125    1
  132   125   126    1
  133   127   128    1
  134   127   129    2
  135   127   130    1
  136   130   131    1
  137   130   132    1
  138   130   133    1
  139   133   134    1
  140   133   135    1
  141   133   136    1
  142   136   137    1
  143   136   138    1
  144   136   139    1
  145   139   140    1
  146   139   141    1
  147   139   142    1
  148   142   143    1
  149   142   144    1
  150   142   145    1
  151   145   146    1
  152   145   147    1
  153   145   148    1
  154   148   149    1
  155   148   150    1
  156   148   151    1
@<TRIPOS>SUBSTRUCTURE
       1 MOL1            1 RESIDUE      1      MOL     
       2 MOL1          151 RESIDUE      1      MOL     
@<SCITEGIC>MOL_PROPERTY
VM2 Rank
SciTegic.value.IntegerValue
1

@<SCITEGIC>MOL_PROPERTY
Conf_Id
SciTegic.value.IntegerValue
24479

@<SCITEGIC>MOL_PROPERTY
Probability
SciTegic.value.DoubleValue
3.99

@<SCITEGIC>MOL_PROPERTY
Sum Probability
SciTegic.value.DoubleValue
3.99

@<SCITEGIC>MOL_PROPERTY
Delta G
SciTegic.value.DoubleValue
0.000

@<SCITEGIC>MOL_PROPERTY
G
SciTegic.value.DoubleValue
504.819

@<SCITEGIC>MOL_PROPERTY
E
SciTegic.value.DoubleValue
307.411

@<SCITEGIC>MOL_PROPERTY
-TS
SciTegic.value.DoubleValue
197.408

@<SCITEGIC>MOL_PROPERTY
U+W
SciTegic.value.DoubleValue
174.169

@<SCITEGIC>MOL_PROPERTY
U
SciTegic.value.DoubleValue
246.196

@<SCITEGIC>MOL_PROPERTY
W
SciTegic.value.DoubleValue
-72.027

@<SCITEGIC>MOL_PROPERTY
W(PB)
SciTegic.value.DoubleValue
-78.240

@<SCITEGIC>MOL_PROPERTY
W(SA)
SciTegic.value.DoubleValue
6.213

@<SCITEGIC>MOL_PROPERTY
Valence
SciTegic.value.DoubleValue
151.526

@<SCITEGIC>MOL_PROPERTY
Coulomb
SciTegic.value.DoubleValue
122.837

@<SCITEGIC>MOL_PROPERTY
VdW
SciTegic.value.DoubleValue
-28.167

@<SCITEGIC>MOL_PROPERTY
VdW6
SciTegic.value.DoubleValue
-185.283

@<SCITEGIC>MOL_PROPERTY
VdW12
SciTegic.value.DoubleValue
157.115

@<SCITEGIC>MOL_PROPERTY
Bond
SciTegic.value.DoubleValue
4.475

@<SCITEGIC>MOL_PROPERTY
Angle
SciTegic.value.DoubleValue
11.119

@<SCITEGIC>MOL_PROPERTY
Pdih
SciTegic.value.DoubleValue
135.932

@<SCITEGIC>MOL_PROPERTY
Idih
SciTegic.value.DoubleValue
0.000

@<SCITEGIC>MOL_PROPERTY
Tether
SciTegic.value.DoubleValue
0.000

