@<TRIPOS>MOLECULE
CD_guest-s9_vm2_rndm.mol2 : vm2 host+ligand conformer 1
         146         151           2
SMALL
USER_CHARGES
 
@<TRIPOS>ATOM
       1    C1      16.380987   15.325443   21.911692 C.3        1 MOL1         0.2972
       2    H1      15.338877   15.178484   22.223368 H          1 MOL1         0.0751
       3    O1      16.559974   16.580384   21.225846 O.3        1 MOL1        -0.3740
       4    C2      17.324936   15.277577   23.140924 C.3        1 MOL1         0.1003
       5    H2      17.200372   14.289992   23.603967 H          1 MOL1         0.0783
       6    O2      17.000128   16.292335   24.104659 O.3        1 MOL1        -0.5519
       7    H3      16.090558   16.615330   23.894928 H          1 MOL1         0.3769
       8    C3      18.801316   15.423581   22.707536 C.3        1 MOL1         0.1053
       9    H4      18.938414   16.445005   22.329906 H          1 MOL1         0.0783
      10    O3      19.638038   15.213233   23.848238 O.3        1 MOL1        -0.5519
      11    H5      19.228068   15.758402   24.557590 H          1 MOL1         0.3769
      12    C4      19.173390   14.434546   21.572019 C.3        1 MOL1         0.1018
      13    H6      19.274995   13.425415   21.992868 H          1 MOL1         0.0783
      14    C5      18.111989   14.418709   20.437188 C.3        1 MOL1         0.1043
      15    H7      18.181253   15.360618   19.878395 H          1 MOL1         0.0783
      16    O4      16.789068   14.272993   21.012776 O.3        1 MOL1        -0.3740
      17    C6      18.314296   13.257073   19.443058 C.3        1 MOL1         0.0138
      18    H8      18.187042   12.300749   19.967939 H          1 MOL1         0.0794
      19    H9      19.336640   13.290436   19.045228 H          1 MOL1         0.0794
      20    O5      17.378840   13.371672   18.369567 O.3        1 MOL1        -0.5486
      21    H10     16.490492   13.427534   18.786426 H          1 MOL1         0.3769
      22    C7      14.678586   20.184871   20.625424 C.3        1 MOL1         0.2972
      23    H11     14.033511   21.035222   20.369199 H          1 MOL1         0.0751
      24    O6      16.036334   20.606614   20.881390 O.3        1 MOL1        -0.3740
      25    C8      14.123830   19.401298   21.845039 C.3        1 MOL1         0.1003
      26    H12     13.152657   18.987728   21.543177 H          1 MOL1         0.0783
      27    O7      13.927534   20.243259   22.990229 O.3        1 MOL1        -0.5519
      28    H13     14.825174   20.545241   23.279968 H          1 MOL1         0.3769
      29    C9      15.054870   18.215908   22.197379 C.3        1 MOL1         0.1053
      30    H14     16.004407   18.628698   22.565916 H          1 MOL1         0.0783
      31    O8      14.437382   17.430321   23.223144 O.3        1 MOL1        -0.5519
      32    H15     14.032465   18.084926   23.836819 H          1 MOL1         0.3769
      33    C10     15.364821   17.337996   20.952076 C.3        1 MOL1         0.1018
      34    H16     14.511177   16.681042   20.737814 H          1 MOL1         0.0783
      35    C11     15.681579   18.170949   19.681745 C.3        1 MOL1         0.1043
      36    H17     16.687313   18.591489   19.788947 H          1 MOL1         0.0783
      37    O9      14.719606   19.244146   19.531017 O.3        1 MOL1        -0.3740
      38    C12     15.652170   17.306516   18.402737 C.3        1 MOL1         0.0138
      39    H18     14.618313   16.999348   18.195449 H          1 MOL1         0.0794
      40    H19     16.242619   16.395010   18.568517 H          1 MOL1         0.0794
      41    O10     16.192188   18.039324   17.300584 O.3        1 MOL1        -0.5486
      42    H20     15.666196   18.868412   17.241657 H          1 MOL1         0.3769
      43    C13     18.460968   23.775604   21.935113 C.3        1 MOL1         0.2972
      44    H21     18.891292   24.727792   22.270313 H          1 MOL1         0.0751
      45    O11     19.441433   22.949882   21.273754 O.3        1 MOL1        -0.3740
      46    C14     17.875062   22.992275   23.137902 C.3        1 MOL1         0.1003
      47    H22     17.086660   23.617173   23.577437 H          1 MOL1         0.0783
      48    O12     18.872965   22.722128   24.135764 O.3        1 MOL1        -0.5519
      49    H23     19.621102   23.346653   23.975629 H          1 MOL1         0.3769
      50    C15     17.234885   21.666832   22.666737 C.3        1 MOL1         0.1053
      51    H24     18.040554   21.014566   22.303734 H          1 MOL1         0.0783
      52    O13     16.580107   21.051045   23.779514 O.3        1 MOL1        -0.5519
      53    H25     17.237325   21.102827   24.510171 H          1 MOL1         0.3769
      54    C16     16.232872   21.890109   21.504335 C.3        1 MOL1         0.1018
      55    H26     15.298874   22.299311   21.911454 H          1 MOL1         0.0783
      56    C17     16.793147   22.837759   20.406029 C.3        1 MOL1         0.1043
      57    H27     17.562096   22.293160   19.842024 H          1 MOL1         0.0783
      58    O14     17.380388   24.017688   21.009220 O.3        1 MOL1        -0.3740
      59    C18     15.720772   23.305654   19.397101 C.3        1 MOL1         0.0138
      60    H28     15.344988   22.434043   18.844947 H          1 MOL1         0.0794
      61    H29     16.191875   23.976538   18.666259 H          1 MOL1         0.0794
      62    O15     14.641916   23.971794   20.059424 O.3        1 MOL1        -0.5486
      63    H30     15.042213   24.722367   20.552457 H          1 MOL1         0.3769
      64    C19     23.565100   22.719611   20.872220 C.3        1 MOL1         0.2972
      65    H31     24.627105   22.882508   20.647846 H          1 MOL1         0.0751
      66    O16     23.295111   21.335451   21.174349 O.3        1 MOL1        -0.3740
      67    C20     23.094139   23.620282   22.046032 C.3        1 MOL1         0.1003
      68    H32     23.228385   24.660567   21.721854 H          1 MOL1         0.0783
      69    O17     23.865689   23.407777   23.237655 O.3        1 MOL1        -0.5519
      70    H33     23.698088   22.475507   23.527611 H          1 MOL1         0.3769
      71    C21     21.588416   23.406165   22.335405 C.3        1 MOL1         0.1053
      72    H34     21.458582   22.386067   22.723689 H          1 MOL1         0.0783
      73    O18     21.174667   24.358700   23.321529 O.3        1 MOL1        -0.5519
      74    H35     21.923167   24.405025   23.959556 H          1 MOL1         0.3769
      75    C22     20.735190   23.542374   21.041567 C.3        1 MOL1         0.1018
      76    H36     20.645778   24.600627   20.761967 H          1 MOL1         0.0783
      77    C23     21.346895   22.760299   19.850158 C.3        1 MOL1         0.1043
      78    H37     21.209313   21.688568   20.034306 H          1 MOL1         0.0783
      79    O19     22.757305   23.071503   19.729454 O.3        1 MOL1        -0.3740
      80    C24     20.667625   23.103966   18.508850 C.3        1 MOL1         0.0138
      81    H38     20.907831   24.139565   18.233190 H          1 MOL1         0.0794
      82    H39     19.578037   23.032985   18.624663 H          1 MOL1         0.0794
      83    O20     21.106598   22.195028   17.497154 O.3        1 MOL1        -0.5486
      84    H40     22.088373   22.239690   17.495173 H          1 MOL1         0.3769
      85    C25     24.930079   17.734401   22.262405 C.3        1 MOL1         0.2972
      86    H41     25.529855   16.881715   22.605902 H          1 MOL1         0.0751
      87    O21     23.757101   17.310064   21.539917 O.3        1 MOL1        -0.3740
      88    C26     24.487872   18.609100   23.462880 C.3        1 MOL1         0.1003
      89    H42     25.398903   19.002521   23.932443 H          1 MOL1         0.0783
      90    O22     23.747708   17.849733   24.432234 O.3        1 MOL1        -0.5519
      91    H43     23.829430   16.897137   24.182937 H          1 MOL1         0.3769
      92    C27     23.639577   19.805032   22.975355 C.3        1 MOL1         0.1053
      93    H44     22.693704   19.404716   22.588576 H          1 MOL1         0.0783
      94    O23     23.376210   20.674469   24.080671 O.3        1 MOL1        -0.5519
      95    H45     23.092655   20.072671   24.805689 H          1 MOL1         0.3769
      96    C28     24.335682   20.587934   21.832192 C.3        1 MOL1         0.1018
      97    H46     25.102797   21.241662   22.267711 H          1 MOL1         0.0783
      98    C29     24.976224   19.663271   20.756454 C.3        1 MOL1         0.1043
      99    H47     24.169337   19.250814   20.136424 H          1 MOL1         0.0783
     100    O24     25.705274   18.578680   21.385641 O.3        1 MOL1        -0.3740
     101    C30     25.950112   20.401723   19.811564 C.3        1 MOL1         0.0138
     102    H48     25.389618   21.145050   19.229479 H          1 MOL1         0.0794
     103    H49     26.367709   19.677851   19.098945 H          1 MOL1         0.0794
     104    O25     27.000325   21.038980   20.544257 O.3        1 MOL1        -0.5486
     105    H50     27.449061   20.330169   21.056975 H          1 MOL1         0.3769
     106    C31     21.472357   13.953676   20.803634 C.3        1 MOL1         0.2972
     107    H51     21.076773   12.971651   20.516438 H          1 MOL1         0.0751
     108    O26     20.408905   14.912049   20.999975 O.3        1 MOL1        -0.3740
     109    C32     22.359643   13.843546   22.073399 C.3        1 MOL1         0.1003
     110    H52     23.200486   13.186361   21.815612 H          1 MOL1         0.0783
     111    O27     21.653536   13.267595   23.181639 O.3        1 MOL1        -0.5519
     112    H53     20.952791   13.917472   23.441617 H          1 MOL1         0.3769
     113    C33     22.943079   15.223677   22.459226 C.3        1 MOL1         0.1053
     114    H54     22.110867   15.866862   22.777967 H          1 MOL1         0.0783
     115    O28     23.866628   15.051693   23.539577 O.3        1 MOL1        -0.5519
     116    H55     23.446531   14.386777   24.131542 H          1 MOL1         0.3769
     117    C34     23.642490   15.904900   21.250616 C.3        1 MOL1         0.1018
     118    H56     24.624038   15.445257   21.073402 H          1 MOL1         0.0783
     119    C35     22.803170   15.818172   19.950279 C.3        1 MOL1         0.1043
     120    H57     21.964774   16.515388   20.045586 H          1 MOL1         0.0783
     121    O29     22.319369   14.465578   19.755082 O.3        1 MOL1        -0.3740
     122    C36     23.610288   16.216363   18.698399 C.3        1 MOL1         0.0138
     123    H58     24.419436   15.490840   18.540447 H          1 MOL1         0.0794
     124    H59     24.069544   17.200384   18.860073 H          1 MOL1         0.0794
     125    O30     22.745258   16.262686   17.562068 O.3        1 MOL1        -0.5486
     126    H60     22.315884   15.380870   17.516626 H          1 MOL1         0.3769
     127    C1      20.118398   18.903895   21.145167 C.3        1 MOL1        -0.2224
     128    H1      20.616703   18.007543   21.537514 H          1 MOL1         0.1052
     129    H2      20.545835   19.777706   21.654284 H          1 MOL1         0.1052
     130    H3      19.054307   18.850144   21.411747 H          1 MOL1         0.1052
     131    C2      20.304794   19.019965   19.616912 C.3        1 MOL1        -0.1209
     132    H4      21.377323   19.044850   19.375615 H          1 MOL1         0.1041
     133    H5      19.879782   19.973252   19.272289 H          1 MOL1         0.1041
     134    C3      19.619948   17.862252   18.860105 C.3        1 MOL1        -0.1274
     135    H6      20.030603   16.898560   19.179114 H          1 MOL1         0.1041
     136    H7      18.556673   17.843489   19.112975 H          1 MOL1         0.1041
     137    C4      19.774331   18.010631   17.334544 C.3        1 MOL1         0.0313
     138    H8      20.808367   17.807320   17.042703 H          1 MOL1         0.1015
     139    H9      19.535292   19.038913   17.050775 H          1 MOL1         0.1015
     140    N1      18.860540   17.102690   16.529236 N.4        1 MOL1        -0.4809
     141    H10     18.926935   17.341636   15.528801 H          1 MOL1         0.3726
     142    H11     17.869054   17.293223   16.781299 H          1 MOL1         0.3726
     143    C5      19.208655   15.634070   16.741484 C.3        1 MOL1        -0.0677
     144    H12     19.082255   15.380010   17.795403 H          1 MOL1         0.1026
     145    H13     18.540586   15.016013   16.137494 H          1 MOL1         0.1026
     146    H14     20.244180   15.464484   16.439714 H          1 MOL1         0.1026
@<TRIPOS>BOND
    1     1     2    1
    2     1     3    1
    3     1     4    1
    4     4     5    1
    5     4     6    1
    6     6     7    1
    7     4     8    1
    8     8     9    1
    9     8    10    1
   10    10    11    1
   11     8    12    1
   12    12    13    1
   13    12    14    1
   14    14    15    1
   15     1    16    1
   16    14    16    1
   17    14    17    1
   18    17    18    1
   19    17    19    1
   20    17    20    1
   21    20    21    1
   22    22    23    1
   23    22    24    1
   24    22    25    1
   25    25    26    1
   26    25    27    1
   27    27    28    1
   28    25    29    1
   29    29    30    1
   30    29    31    1
   31    31    32    1
   32     3    33    1
   33    29    33    1
   34    33    34    1
   35    33    35    1
   36    35    36    1
   37    22    37    1
   38    35    37    1
   39    35    38    1
   40    38    39    1
   41    38    40    1
   42    38    41    1
   43    41    42    1
   44    43    44    1
   45    43    45    1
   46    43    46    1
   47    46    47    1
   48    46    48    1
   49    48    49    1
   50    46    50    1
   51    50    51    1
   52    50    52    1
   53    52    53    1
   54    24    54    1
   55    50    54    1
   56    54    55    1
   57    54    56    1
   58    56    57    1
   59    43    58    1
   60    56    58    1
   61    56    59    1
   62    59    60    1
   63    59    61    1
   64    59    62    1
   65    62    63    1
   66    64    65    1
   67    64    66    1
   68    64    67    1
   69    67    68    1
   70    67    69    1
   71    69    70    1
   72    67    71    1
   73    71    72    1
   74    71    73    1
   75    73    74    1
   76    45    75    1
   77    71    75    1
   78    75    76    1
   79    75    77    1
   80    77    78    1
   81    64    79    1
   82    77    79    1
   83    77    80    1
   84    80    81    1
   85    80    82    1
   86    80    83    1
   87    83    84    1
   88    85    86    1
   89    85    87    1
   90    85    88    1
   91    88    89    1
   92    88    90    1
   93    90    91    1
   94    88    92    1
   95    92    93    1
   96    92    94    1
   97    94    95    1
   98    66    96    1
   99    92    96    1
  100    96    97    1
  101    96    98    1
  102    98    99    1
  103    85   100    1
  104    98   100    1
  105    98   101    1
  106   101   102    1
  107   101   103    1
  108   101   104    1
  109   104   105    1
  110   106   107    1
  111    12   108    1
  112   106   108    1
  113   106   109    1
  114   109   110    1
  115   109   111    1
  116   111   112    1
  117   109   113    1
  118   113   114    1
  119   113   115    1
  120   115   116    1
  121    87   117    1
  122   113   117    1
  123   117   118    1
  124   117   119    1
  125   119   120    1
  126   106   121    1
  127   119   121    1
  128   119   122    1
  129   122   123    1
  130   122   124    1
  131   122   125    1
  132   125   126    1
  133   127   128    1
  134   127   129    1
  135   127   130    1
  136   127   131    1
  137   131   132    1
  138   131   133    1
  139   131   134    1
  140   134   135    1
  141   134   136    1
  142   134   137    1
  143   137   138    1
  144   137   139    1
  145   137   140    1
  146   140   141    1
  147   140   142    1
  148   140   143    1
  149   143   144    1
  150   143   145    1
  151   143   146    1
@<TRIPOS>SUBSTRUCTURE
       1 MOL1            1 RESIDUE      1      MOL     
       2 MOL1          146 RESIDUE      1      MOL     
@<SCITEGIC>MOL_PROPERTY
VM2 Rank
SciTegic.value.IntegerValue
1

@<SCITEGIC>MOL_PROPERTY
Conf_Id
SciTegic.value.IntegerValue
25403

@<SCITEGIC>MOL_PROPERTY
Probability
SciTegic.value.DoubleValue
3.27

@<SCITEGIC>MOL_PROPERTY
Sum Probability
SciTegic.value.DoubleValue
3.27

@<SCITEGIC>MOL_PROPERTY
Delta G
SciTegic.value.DoubleValue
0.000

@<SCITEGIC>MOL_PROPERTY
G
SciTegic.value.DoubleValue
576.096

@<SCITEGIC>MOL_PROPERTY
E
SciTegic.value.DoubleValue
383.023

@<SCITEGIC>MOL_PROPERTY
-TS
SciTegic.value.DoubleValue
193.073

@<SCITEGIC>MOL_PROPERTY
U+W
SciTegic.value.DoubleValue
254.252

@<SCITEGIC>MOL_PROPERTY
U
SciTegic.value.DoubleValue
318.890

@<SCITEGIC>MOL_PROPERTY
W
SciTegic.value.DoubleValue
-64.638

@<SCITEGIC>MOL_PROPERTY
W(PB)
SciTegic.value.DoubleValue
-70.669

@<SCITEGIC>MOL_PROPERTY
W(SA)
SciTegic.value.DoubleValue
6.031

@<SCITEGIC>MOL_PROPERTY
Valence
SciTegic.value.DoubleValue
144.404

@<SCITEGIC>MOL_PROPERTY
Coulomb
SciTegic.value.DoubleValue
194.971

@<SCITEGIC>MOL_PROPERTY
VdW
SciTegic.value.DoubleValue
-20.485

@<SCITEGIC>MOL_PROPERTY
VdW6
SciTegic.value.DoubleValue
-169.094

@<SCITEGIC>MOL_PROPERTY
VdW12
SciTegic.value.DoubleValue
148.609

@<SCITEGIC>MOL_PROPERTY
Bond
SciTegic.value.DoubleValue
4.452

@<SCITEGIC>MOL_PROPERTY
Angle
SciTegic.value.DoubleValue
10.742

@<SCITEGIC>MOL_PROPERTY
Pdih
SciTegic.value.DoubleValue
129.211

@<SCITEGIC>MOL_PROPERTY
Idih
SciTegic.value.DoubleValue
0.000

@<SCITEGIC>MOL_PROPERTY
Tether
SciTegic.value.DoubleValue
0.000

@<TRIPOS>MOLECULE
CD_guest-s9_vm2_rndm.mol2 : vm2 host+ligand conformer 2
         146         151           2
SMALL
USER_CHARGES
 
@<TRIPOS>ATOM
       1    C1      16.378943   15.325742   21.911795 C.3        1 MOL1         0.2972
       2    H1      15.335967   15.173443   22.218074 H          1 MOL1         0.0751
       3    O1      16.557271   16.588247   21.240054 O.3        1 MOL1        -0.3740
       4    C2      17.317367   15.267521   23.144859 C.3        1 MOL1         0.1003
       5    H2      17.190112   14.276388   23.599503 H          1 MOL1         0.0783
       6    O2      16.988142   16.274932   24.114837 O.3        1 MOL1        -0.5519
       7    H3      16.084465   16.608597   23.896151 H          1 MOL1         0.3769
       8    C3      18.796045   15.416213   22.720356 C.3        1 MOL1         0.1053
       9    H4      18.935482   16.440461   22.352384 H          1 MOL1         0.0783
      10    O3      19.627374   15.195382   23.863048 O.3        1 MOL1        -0.5519
      11    H5      19.214310   15.734153   24.575460 H          1 MOL1         0.3769
      12    C4      19.173077   14.437689   21.577799 C.3        1 MOL1         0.1018
      13    H6      19.268626   13.424150   21.989469 H          1 MOL1         0.0783
      14    C5      18.118975   14.437526   20.436228 C.3        1 MOL1         0.1043
      15    H7      18.192006   15.386944   19.890933 H          1 MOL1         0.0783
      16    O4      16.792804   14.284191   21.002639 O.3        1 MOL1        -0.3740
      17    C6      18.326905   13.290388   19.426529 C.3        1 MOL1         0.0138
      18    H8      18.196245   12.326504   19.936504 H          1 MOL1         0.0794
      19    H9      19.351662   13.329330   19.035188 H          1 MOL1         0.0794
      20    O5      17.397979   13.421387   18.349188 O.3        1 MOL1        -0.5486
      21    H10     16.507096   13.470812   18.761297 H          1 MOL1         0.3769
      22    C7      14.668835   20.184323   20.624726 C.3        1 MOL1         0.2972
      23    H11     14.023270   21.033700   20.366533 H          1 MOL1         0.0751
      24    O6      16.027610   20.607087   20.875189 O.3        1 MOL1        -0.3740
      25    C8      14.116758   19.405478   21.848792 C.3        1 MOL1         0.1003
      26    H12     13.145613   18.989491   21.550185 H          1 MOL1         0.0783
      27    O7      13.921036   20.252122   22.990564 O.3        1 MOL1        -0.5519
      28    H13     14.819051   20.553516   23.279647 H          1 MOL1         0.3769
      29    C9      15.049711   18.222601   22.204726 C.3        1 MOL1         0.1053
      30    H14     15.999163   18.637900   22.570526 H          1 MOL1         0.0783
      31    O8      14.435449   17.438904   23.233787 O.3        1 MOL1        -0.5519
      32    H15     14.032881   18.094440   23.847935 H          1 MOL1         0.3769
      33    C10     15.359431   17.340387   20.962866 C.3        1 MOL1         0.1018
      34    H16     14.507212   16.680000   20.753445 H          1 MOL1         0.0783
      35    C11     15.670769   18.167543   19.687520 C.3        1 MOL1         0.1043
      36    H17     16.674771   18.592141   19.790227 H          1 MOL1         0.0783
      37    O9      14.706817   19.238512   19.534187 O.3        1 MOL1        -0.3740
      38    C12     15.642052   17.294778   18.414023 C.3        1 MOL1         0.0138
      39    H18     14.606971   16.995067   18.201983 H          1 MOL1         0.0794
      40    H19     16.223297   16.379294   18.590086 H          1 MOL1         0.0794
      41    O10     16.196691   18.013654   17.310132 O.3        1 MOL1        -0.5486
      42    H20     15.675236   18.844267   17.236073 H          1 MOL1         0.3769
      43    C13     18.461775   23.770515   21.926818 C.3        1 MOL1         0.2972
      44    H21     18.893420   24.722107   22.262002 H          1 MOL1         0.0751
      45    O11     19.441216   22.943938   21.264881 O.3        1 MOL1        -0.3740
      46    C14     17.875409   22.987942   23.129884 C.3        1 MOL1         0.1003
      47    H22     17.089351   23.614723   23.570931 H          1 MOL1         0.0783
      48    O12     18.873899   22.714187   24.126172 O.3        1 MOL1        -0.5519
      49    H23     19.621431   23.340049   23.968567 H          1 MOL1         0.3769
      50    C15     17.231059   21.664449   22.659191 C.3        1 MOL1         0.1053
      51    H24     18.034579   21.010597   22.294700 H          1 MOL1         0.0783
      52    O13     16.577111   21.050084   23.773166 O.3        1 MOL1        -0.5519
      53    H25     17.235283   21.102045   24.502969 H          1 MOL1         0.3769
      54    C16     16.228036   21.890069   21.498085 C.3        1 MOL1         0.1018
      55    H26     15.295470   22.301953   21.905752 H          1 MOL1         0.0783
      56    C17     16.790479   22.835697   20.399209 C.3        1 MOL1         0.1043
      57    H27     17.557873   22.288884   19.835239 H          1 MOL1         0.0783
      58    O14     17.381036   24.014429   21.001515 O.3        1 MOL1        -0.3740
      59    C18     15.718768   23.305689   19.390575 C.3        1 MOL1         0.0138
      60    H28     15.339689   22.434531   18.839946 H          1 MOL1         0.0794
      61    H29     16.191367   23.974125   18.658460 H          1 MOL1         0.0794
      62    O15     14.642643   23.976117   20.053008 O.3        1 MOL1        -0.5486
      63    H30     15.045899   24.725623   20.545252 H          1 MOL1         0.3769
      64    C19     23.565697   22.709155   20.866429 C.3        1 MOL1         0.2972
      65    H31     24.627958   22.871318   20.642697 H          1 MOL1         0.0751
      66    O16     23.294758   21.324965   21.168377 O.3        1 MOL1        -0.3740
      67    C20     23.094727   23.610218   22.039974 C.3        1 MOL1         0.1003
      68    H32     23.230150   24.650362   21.715835 H          1 MOL1         0.0783
      69    O17     23.865412   23.397168   23.232032 O.3        1 MOL1        -0.5519
      70    H33     23.696786   22.465050   23.521895 H          1 MOL1         0.3769
      71    C21     21.588545   23.397692   22.328468 C.3        1 MOL1         0.1053
      72    H34     21.457399   22.377696   22.716561 H          1 MOL1         0.0783
      73    O18     21.175430   24.350662   23.314440 O.3        1 MOL1        -0.5519
      74    H35     21.923720   24.396134   23.952773 H          1 MOL1         0.3769
      75    C22     20.736146   23.535022   21.034159 C.3        1 MOL1         0.1018
      76    H36     20.648217   24.593388   20.754526 H          1 MOL1         0.0783
      77    C23     21.348241   22.752477   19.843393 C.3        1 MOL1         0.1043
      78    H37     21.210626   21.681288   20.028603 H          1 MOL1         0.0783
      79    O19     22.758913   23.062263   19.723236 O.3        1 MOL1        -0.3740
      80    C24     20.669266   23.094766   18.501596 C.3        1 MOL1         0.0138
      81    H38     20.914547   24.128068   18.221819 H          1 MOL1         0.0794
      82    H39     19.579441   23.029911   18.618804 H          1 MOL1         0.0794
      83    O20     21.102068   22.179614   17.492881 O.3        1 MOL1        -0.5486
      84    H40     22.084061   22.218609   17.489409 H          1 MOL1         0.3769
      85    C25     24.936933   17.725696   22.263678 C.3        1 MOL1         0.2972
      86    H41     25.538980   16.875372   22.609048 H          1 MOL1         0.0751
      87    O21     23.764229   17.297090   21.544288 O.3        1 MOL1        -0.3740
      88    C26     24.491999   18.602488   23.461576 C.3        1 MOL1         0.1003
      89    H42     25.401696   19.000185   23.930110 H          1 MOL1         0.0783
      90    O22     23.754348   17.843029   24.432857 O.3        1 MOL1        -0.5519
      91    H43     23.835366   16.890491   24.183120 H          1 MOL1         0.3769
      92    C27     23.639723   19.794433   22.970419 C.3        1 MOL1         0.1053
      93    H44     22.695640   19.390562   22.582818 H          1 MOL1         0.0783
      94    O23     23.372202   20.665125   24.073748 O.3        1 MOL1        -0.5519
      95    H45     23.090892   20.063673   24.799919 H          1 MOL1         0.3769
      96    C28     24.334981   20.576839   21.826435 C.3        1 MOL1         0.1018
      97    H46     25.102668   21.230379   22.261224 H          1 MOL1         0.0783
      98    C29     24.974988   19.650389   20.751835 C.3        1 MOL1         0.1043
      99    H47     24.167736   19.233746   20.134773 H          1 MOL1         0.0783
     100    O24     25.708433   18.569814   21.383273 O.3        1 MOL1        -0.3740
     101    C30     25.944991   20.388357   19.802589 C.3        1 MOL1         0.0138
     102    H48     25.381332   21.128501   19.219492 H          1 MOL1         0.0794
     103    H49     26.362831   19.663356   19.091284 H          1 MOL1         0.0794
     104    O25     26.995210   21.030481   20.531041 O.3        1 MOL1        -0.5486
     105    H50     27.446507   20.324405   21.045280 H          1 MOL1         0.3769
     106    C31     21.470966   13.952473   20.814934 C.3        1 MOL1         0.2972
     107    H51     21.068381   12.973190   20.528188 H          1 MOL1         0.0751
     108    O26     20.414145   14.916563   21.019524 O.3        1 MOL1        -0.3740
     109    C32     22.361474   13.835889   22.081089 C.3        1 MOL1         0.1003
     110    H52     23.198493   13.174972   21.820451 H          1 MOL1         0.0783
     111    O27     21.655169   13.263231   23.191029 O.3        1 MOL1        -0.5519
     112    H53     20.953248   13.912937   23.448368 H          1 MOL1         0.3769
     113    C33     22.951268   15.213648   22.464379 C.3        1 MOL1         0.1053
     114    H54     22.121732   15.859933   22.784002 H          1 MOL1         0.0783
     115    O28     23.875805   15.040166   23.543713 O.3        1 MOL1        -0.5519
     116    H55     23.454522   14.377123   24.136928 H          1 MOL1         0.3769
     117    C34     23.650974   15.891900   21.254011 C.3        1 MOL1         0.1018
     118    H56     24.632640   15.432329   21.077421 H          1 MOL1         0.0783
     119    C35     22.813020   15.807848   19.951739 C.3        1 MOL1         0.1043
     120    H57     21.981033   16.511511   20.047995 H          1 MOL1         0.0783
     121    O29     22.319144   14.457642   19.765232 O.3        1 MOL1        -0.3740
     122    C36     23.627742   16.204999   18.701103 C.3        1 MOL1         0.0138
     123    H58     24.301002   15.379925   18.432782 H          1 MOL1         0.0794
     124    H59     24.250278   17.077360   18.940852 H          1 MOL1         0.0794
     125    O30     22.755580   16.524175   17.611171 O.3        1 MOL1        -0.5486
     126    H60     23.314796   16.700160   16.824774 H          1 MOL1         0.3769
     127    C1      20.067549   18.908815   21.274860 C.3        1 MOL1        -0.2224
     128    H1      19.012328   18.791830   21.555945 H          1 MOL1         0.1052
     129    H2      20.618229   18.026765   21.628075 H          1 MOL1         0.1052
     130    H3      20.459453   19.786563   21.805654 H          1 MOL1         0.1052
     131    C2      20.220691   19.083743   19.749022 C.3        1 MOL1        -0.1209
     132    H4      21.285998   19.182438   19.494421 H          1 MOL1         0.1041
     133    H5      19.731069   20.018547   19.441298 H          1 MOL1         0.1041
     134    C3      19.601302   17.908441   18.964174 C.3        1 MOL1        -0.1274
     135    H6      20.074862   16.964499   19.251574 H          1 MOL1         0.1041
     136    H7      18.544337   17.811352   19.223091 H          1 MOL1         0.1041
     137    C4      19.737952   18.108298   17.443085 C.3        1 MOL1         0.0313
     138    H8      20.785494   18.001273   17.149106 H          1 MOL1         0.1015
     139    H9      19.411148   19.118627   17.183419 H          1 MOL1         0.1015
     140    N1      18.910048   17.142282   16.613461 N.4        1 MOL1        -0.4809
     141    H10     18.977737   17.396031   15.616896 H          1 MOL1         0.3726
     142    H11     17.902703   17.255943   16.847473 H          1 MOL1         0.3726
     143    C5      19.370299   15.703227   16.820714 C.3        1 MOL1        -0.0677
     144    H12     19.218665   15.421474   17.864108 H          1 MOL1         0.1026
     145    H13     18.785515   15.042016   16.177483 H          1 MOL1         0.1026
     146    H14     20.431036   15.626025   16.569865 H          1 MOL1         0.1026
@<TRIPOS>BOND
    1     1     2    1
    2     1     3    1
    3     1     4    1
    4     4     5    1
    5     4     6    1
    6     6     7    1
    7     4     8    1
    8     8     9    1
    9     8    10    1
   10    10    11    1
   11     8    12    1
   12    12    13    1
   13    12    14    1
   14    14    15    1
   15     1    16    1
   16    14    16    1
   17    14    17    1
   18    17    18    1
   19    17    19    1
   20    17    20    1
   21    20    21    1
   22    22    23    1
   23    22    24    1
   24    22    25    1
   25    25    26    1
   26    25    27    1
   27    27    28    1
   28    25    29    1
   29    29    30    1
   30    29    31    1
   31    31    32    1
   32     3    33    1
   33    29    33    1
   34    33    34    1
   35    33    35    1
   36    35    36    1
   37    22    37    1
   38    35    37    1
   39    35    38    1
   40    38    39    1
   41    38    40    1
   42    38    41    1
   43    41    42    1
   44    43    44    1
   45    43    45    1
   46    43    46    1
   47    46    47    1
   48    46    48    1
   49    48    49    1
   50    46    50    1
   51    50    51    1
   52    50    52    1
   53    52    53    1
   54    24    54    1
   55    50    54    1
   56    54    55    1
   57    54    56    1
   58    56    57    1
   59    43    58    1
   60    56    58    1
   61    56    59    1
   62    59    60    1
   63    59    61    1
   64    59    62    1
   65    62    63    1
   66    64    65    1
   67    64    66    1
   68    64    67    1
   69    67    68    1
   70    67    69    1
   71    69    70    1
   72    67    71    1
   73    71    72    1
   74    71    73    1
   75    73    74    1
   76    45    75    1
   77    71    75    1
   78    75    76    1
   79    75    77    1
   80    77    78    1
   81    64    79    1
   82    77    79    1
   83    77    80    1
   84    80    81    1
   85    80    82    1
   86    80    83    1
   87    83    84    1
   88    85    86    1
   89    85    87    1
   90    85    88    1
   91    88    89    1
   92    88    90    1
   93    90    91    1
   94    88    92    1
   95    92    93    1
   96    92    94    1
   97    94    95    1
   98    66    96    1
   99    92    96    1
  100    96    97    1
  101    96    98    1
  102    98    99    1
  103    85   100    1
  104    98   100    1
  105    98   101    1
  106   101   102    1
  107   101   103    1
  108   101   104    1
  109   104   105    1
  110   106   107    1
  111    12   108    1
  112   106   108    1
  113   106   109    1
  114   109   110    1
  115   109   111    1
  116   111   112    1
  117   109   113    1
  118   113   114    1
  119   113   115    1
  120   115   116    1
  121    87   117    1
  122   113   117    1
  123   117   118    1
  124   117   119    1
  125   119   120    1
  126   106   121    1
  127   119   121    1
  128   119   122    1
  129   122   123    1
  130   122   124    1
  131   122   125    1
  132   125   126    1
  133   127   128    1
  134   127   129    1
  135   127   130    1
  136   127   131    1
  137   131   132    1
  138   131   133    1
  139   131   134    1
  140   134   135    1
  141   134   136    1
  142   134   137    1
  143   137   138    1
  144   137   139    1
  145   137   140    1
  146   140   141    1
  147   140   142    1
  148   140   143    1
  149   143   144    1
  150   143   145    1
  151   143   146    1
@<TRIPOS>SUBSTRUCTURE
       1 MOL1            1 RESIDUE      1      MOL     
       2 MOL1          146 RESIDUE      1      MOL     
@<SCITEGIC>MOL_PROPERTY
VM2 Rank
SciTegic.value.IntegerValue
2

@<SCITEGIC>MOL_PROPERTY
Conf_Id
SciTegic.value.IntegerValue
25521

@<SCITEGIC>MOL_PROPERTY
Probability
SciTegic.value.DoubleValue
2.82

@<SCITEGIC>MOL_PROPERTY
Sum Probability
SciTegic.value.DoubleValue
6.08

@<SCITEGIC>MOL_PROPERTY
Delta G
SciTegic.value.DoubleValue
0.088

@<SCITEGIC>MOL_PROPERTY
G
SciTegic.value.DoubleValue
576.184

@<SCITEGIC>MOL_PROPERTY
E
SciTegic.value.DoubleValue
383.382

@<SCITEGIC>MOL_PROPERTY
-TS
SciTegic.value.DoubleValue
192.802

@<SCITEGIC>MOL_PROPERTY
U+W
SciTegic.value.DoubleValue
254.611

@<SCITEGIC>MOL_PROPERTY
U
SciTegic.value.DoubleValue
318.555

@<SCITEGIC>MOL_PROPERTY
W
SciTegic.value.DoubleValue
-63.944

@<SCITEGIC>MOL_PROPERTY
W(PB)
SciTegic.value.DoubleValue
-70.001

@<SCITEGIC>MOL_PROPERTY
W(SA)
SciTegic.value.DoubleValue
6.056

@<SCITEGIC>MOL_PROPERTY
Valence
SciTegic.value.DoubleValue
144.116

@<SCITEGIC>MOL_PROPERTY
Coulomb
SciTegic.value.DoubleValue
195.195

@<SCITEGIC>MOL_PROPERTY
VdW
SciTegic.value.DoubleValue
-20.757

@<SCITEGIC>MOL_PROPERTY
VdW6
SciTegic.value.DoubleValue
-169.548

@<SCITEGIC>MOL_PROPERTY
VdW12
SciTegic.value.DoubleValue
148.792

@<SCITEGIC>MOL_PROPERTY
Bond
SciTegic.value.DoubleValue
4.474

@<SCITEGIC>MOL_PROPERTY
Angle
SciTegic.value.DoubleValue
10.709

@<SCITEGIC>MOL_PROPERTY
Pdih
SciTegic.value.DoubleValue
128.934

@<SCITEGIC>MOL_PROPERTY
Idih
SciTegic.value.DoubleValue
0.000

@<SCITEGIC>MOL_PROPERTY
Tether
SciTegic.value.DoubleValue
0.000

@<TRIPOS>MOLECULE
CD_guest-s9_vm2_rndm.mol2 : vm2 host+ligand conformer 3
         146         151           2
SMALL
USER_CHARGES
 
@<TRIPOS>ATOM
       1    C1      16.276311   15.025782   21.216849 C.3        1 MOL1         0.2972
       2    H1      15.206113   14.834878   21.068109 H          1 MOL1         0.0751
       3    O1      16.559693   16.434982   21.345944 O.3        1 MOL1        -0.3740
       4    C2      16.770438   14.305276   22.497066 C.3        1 MOL1         0.1003
       5    H2      16.596100   13.230652   22.355804 H          1 MOL1         0.0783
       6    O2      16.046799   14.746367   23.656181 O.3        1 MOL1        -0.5519
       7    H3      15.775956   15.685895   23.497839 H          1 MOL1         0.3769
       8    C3      18.289908   14.515537   22.692645 C.3        1 MOL1         0.1053
       9    H4      18.464312   15.579186   22.904229 H          1 MOL1         0.0783
      10    O3      18.743484   13.722451   23.793795 O.3        1 MOL1        -0.5519
      11    H5      18.073382   13.864442   24.499839 H          1 MOL1         0.3769
      12    C4      19.074349   14.136940   21.412456 C.3        1 MOL1         0.1018
      13    H6      19.074297   13.044015   21.306220 H          1 MOL1         0.0783
      14    C5      18.463475   14.783055   20.139902 C.3        1 MOL1         0.1043
      15    H7      18.647723   15.862760   20.175907 H          1 MOL1         0.0783
      16    O4      17.039064   14.514201   20.103480 O.3        1 MOL1        -0.3740
      17    C6      19.074377   14.230896   18.835490 C.3        1 MOL1         0.0138
      18    H8      18.834684   13.163249   18.742858 H          1 MOL1         0.0794
      19    H9      20.165095   14.326479   18.876641 H          1 MOL1         0.0794
      20    O5      18.577046   14.959136   17.712163 O.3        1 MOL1        -0.5486
      21    H10     17.599833   14.874500   17.736917 H          1 MOL1         0.3769
      22    C7      14.842423   20.208454   20.906582 C.3        1 MOL1         0.2972
      23    H11     14.174025   21.051622   20.689554 H          1 MOL1         0.0751
      24    O6      16.188923   20.652230   21.165142 O.3        1 MOL1        -0.3740
      25    C8      14.329494   19.382386   22.117995 C.3        1 MOL1         0.1003
      26    H12     13.332969   19.006873   21.851442 H          1 MOL1         0.0783
      27    O7      14.220618   20.182254   23.305421 O.3        1 MOL1        -0.5519
      28    H13     15.128378   20.519310   23.514766 H          1 MOL1         0.3769
      29    C9      15.243894   18.159679   22.376419 C.3        1 MOL1         0.1053
      30    H14     16.220404   18.529804   22.718919 H          1 MOL1         0.0783
      31    O8      14.655889   17.334568   23.385962 O.3        1 MOL1        -0.5519
      32    H15     14.351918   17.958091   24.083211 H          1 MOL1         0.3769
      33    C10     15.464493   17.335289   21.082441 C.3        1 MOL1         0.1018
      34    H16     14.537313   16.801661   20.834936 H          1 MOL1         0.0783
      35    C11     15.863345   18.238945   19.886877 C.3        1 MOL1         0.1043
      36    H17     16.863971   18.642647   20.076020 H          1 MOL1         0.0783
      37    O9      14.902061   19.317339   19.772570 O.3        1 MOL1        -0.3740
      38    C12     15.895196   17.490399   18.538972 C.3        1 MOL1         0.0138
      39    H18     14.884854   17.138029   18.292003 H          1 MOL1         0.0794
      40    H19     16.544590   16.611755   18.629052 H          1 MOL1         0.0794
      41    O10     16.393928   18.356855   17.516559 O.3        1 MOL1        -0.5486
      42    H20     15.803490   19.143570   17.524075 H          1 MOL1         0.3769
      43    C13     18.536499   23.935744   21.897139 C.3        1 MOL1         0.2972
      44    H21     18.978128   24.908286   22.149103 H          1 MOL1         0.0751
      45    O11     19.470185   23.087379   21.197227 O.3        1 MOL1        -0.3740
      46    C14     18.053082   23.207717   23.178548 C.3        1 MOL1         0.1003
      47    H22     17.278019   23.836608   23.635755 H          1 MOL1         0.0783
      48    O12     19.120157   23.015033   24.120807 O.3        1 MOL1        -0.5519
      49    H23     19.852368   23.625101   23.861896 H          1 MOL1         0.3769
      50    C15     17.421100   21.844033   22.820873 C.3        1 MOL1         0.1053
      51    H24     18.223011   21.192495   22.450616 H          1 MOL1         0.0783
      52    O13     16.843244   21.268335   23.996523 O.3        1 MOL1        -0.5519
      53    H25     17.530739   21.384788   24.690752 H          1 MOL1         0.3769
      54    C16     16.348853   21.973960   21.709629 C.3        1 MOL1         0.1018
      55    H26     15.420323   22.350689   22.158829 H          1 MOL1         0.0783
      56    C17     16.788047   22.898064   20.536686 C.3        1 MOL1         0.1043
      57    H27     17.526482   22.356241   19.930885 H          1 MOL1         0.0783
      58    O14     17.383342   24.116105   21.049156 O.3        1 MOL1        -0.3740
      59    C18     15.628418   23.299193   19.597822 C.3        1 MOL1         0.0138
      60    H28     15.250887   22.401454   19.090889 H          1 MOL1         0.0794
      61    H29     16.019032   23.970479   18.821291 H          1 MOL1         0.0794
      62    O15     14.572628   23.938359   20.320888 O.3        1 MOL1        -0.5486
      63    H30     14.973059   24.721188   20.760707 H          1 MOL1         0.3769
      64    C19     23.521915   22.734356   20.543036 C.3        1 MOL1         0.2972
      65    H31     24.576568   22.827213   20.253320 H          1 MOL1         0.0751
      66    O16     23.197210   21.380613   20.927470 O.3        1 MOL1        -0.3740
      67    C20     23.165085   23.719478   21.688256 C.3        1 MOL1         0.1003
      68    H32     23.308419   24.733304   21.292069 H          1 MOL1         0.0783
      69    O17     24.008835   23.553393   22.837127 O.3        1 MOL1        -0.5519
      70    H33     23.799922   22.663071   23.217357 H          1 MOL1         0.3769
      71    C21     21.677540   23.572632   22.086389 C.3        1 MOL1         0.1053
      72    H34     21.542743   22.579545   22.537320 H          1 MOL1         0.0783
      73    O18     21.356875   24.588380   23.043733 O.3        1 MOL1        -0.5519
      74    H35     22.147598   24.646603   23.627443 H          1 MOL1         0.3769
      75    C22     20.741410   23.668781   20.848332 C.3        1 MOL1         0.1018
      76    H36     20.632037   24.718745   20.545487 H          1 MOL1         0.0783
      77    C23     21.254774   22.848759   19.633221 C.3        1 MOL1         0.1043
      78    H37     21.073126   21.785545   19.827688 H          1 MOL1         0.0783
      79    O19     22.670978   23.083475   19.431103 O.3        1 MOL1        -0.3740
      80    C24     20.519975   23.223147   18.329578 C.3        1 MOL1         0.0138
      81    H38     20.772638   24.255505   18.052936 H          1 MOL1         0.0794
      82    H39     19.436010   23.178779   18.499867 H          1 MOL1         0.0794
      83    O20     20.884403   22.317578   17.285953 O.3        1 MOL1        -0.5486
      84    H40     21.865170   22.345768   17.229635 H          1 MOL1         0.3769
      85    C25     24.787267   17.827118   22.325318 C.3        1 MOL1         0.2972
      86    H41     25.411714   17.028512   22.746035 H          1 MOL1         0.0751
      87    O21     23.599761   17.301441   21.700682 O.3        1 MOL1        -0.3740
      88    C26     24.367893   18.822843   23.436334 C.3        1 MOL1         0.1003
      89    H42     25.289631   19.247142   23.855403 H          1 MOL1         0.0783
      90    O22     23.630906   18.168113   24.482032 O.3        1 MOL1        -0.5519
      91    H43     23.780870   17.196996   24.380093 H          1 MOL1         0.3769
      92    C27     23.526517   19.978714   22.849516 C.3        1 MOL1         0.1053
      93    H44     22.566104   19.560383   22.522646 H          1 MOL1         0.0783
      94    O23     23.304504   20.952391   23.873635 O.3        1 MOL1        -0.5519
      95    H45     23.019728   20.427717   24.655740 H          1 MOL1         0.3769
      96    C28     24.214273   20.631773   21.622400 C.3        1 MOL1         0.1018
      97    H46     25.031603   21.274364   21.975025 H          1 MOL1         0.0783
      98    C29     24.770059   19.582200   20.619465 C.3        1 MOL1         0.1043
      99    H47     23.920680   19.118234   20.100762 H          1 MOL1         0.0783
     100    O24     25.523139   18.566070   21.327580 O.3        1 MOL1        -0.3740
     101    C30     25.694929   20.191442   19.542267 C.3        1 MOL1         0.0138
     102    H48     25.110446   20.878697   18.916329 H          1 MOL1         0.0794
     103    H49     26.057121   19.385131   18.890456 H          1 MOL1         0.0794
     104    O25     26.797335   20.882907   20.136196 O.3        1 MOL1        -0.5486
     105    H50     27.264780   20.225717   20.698501 H          1 MOL1         0.3769
     106    C31     21.500403   13.755345   21.391402 C.3        1 MOL1         0.2972
     107    H51     21.159574   12.724544   21.232795 H          1 MOL1         0.0751
     108    O26     20.400592   14.667849   21.586863 O.3        1 MOL1        -0.3740
     109    C32     22.409330   13.835982   22.641581 C.3        1 MOL1         0.1003
     110    H52     23.280618   13.194228   22.456545 H          1 MOL1         0.0783
     111    O27     21.718685   13.366518   23.810182 O.3        1 MOL1        -0.5519
     112    H53     20.778418   13.671054   23.740941 H          1 MOL1         0.3769
     113    C33     22.919174   15.281553   22.857783 C.3        1 MOL1         0.1053
     114    H54     22.059187   15.905046   23.138211 H          1 MOL1         0.0783
     115    O28     23.878068   15.279291   23.920775 O.3        1 MOL1        -0.5519
     116    H55     23.500573   14.672438   24.598067 H          1 MOL1         0.3769
     117    C34     23.538778   15.869820   21.558500 C.3        1 MOL1         0.1018
     118    H56     24.534506   15.438074   21.389946 H          1 MOL1         0.0783
     119    C35     22.664035   15.605967   20.305535 C.3        1 MOL1         0.1043
     120    H57     21.775737   16.244482   20.360797 H          1 MOL1         0.0783
     121    O29     22.276371   14.211738   20.264694 O.3        1 MOL1        -0.3740
     122    C36     23.406940   15.933070   18.993881 C.3        1 MOL1         0.0138
     123    H58     24.219787   15.209820   18.844705 H          1 MOL1         0.0794
     124    H59     23.858960   16.930403   19.073281 H          1 MOL1         0.0794
     125    O30     22.495279   15.904318   17.893968 O.3        1 MOL1        -0.5486
     126    H60     22.091282   15.009870   17.887823 H          1 MOL1         0.3769
     127    C1      19.865813   18.330406   21.922745 C.3        1 MOL1        -0.2224
     128    H1      18.838718   17.947313   21.978688 H          1 MOL1         0.1052
     129    H2      20.550678   17.474188   21.904879 H          1 MOL1         0.1052
     130    H3      20.062375   18.896014   22.843040 H          1 MOL1         0.1052
     131    C2      20.057595   19.228380   20.681756 C.3        1 MOL1        -0.1209
     132    H4      21.082435   19.622853   20.668736 H          1 MOL1         0.1041
     133    H5      19.384890   20.094099   20.757248 H          1 MOL1         0.1041
     134    C3      19.780667   18.472323   19.364469 C.3        1 MOL1        -0.1274
     135    H6      20.529133   17.684899   19.216250 H          1 MOL1         0.1041
     136    H7      18.808348   17.973256   19.419544 H          1 MOL1         0.1041
     137    C4      19.785239   19.421214   18.151224 C.3        1 MOL1         0.0313
     138    H8      20.801399   19.770812   17.950830 H          1 MOL1         0.1015
     139    H9      19.167362   20.294660   18.375480 H          1 MOL1         0.1015
     140    N1      19.233641   18.803305   16.878477 N.4        1 MOL1        -0.4809
     141    H10     19.168712   19.526123   16.146173 H          1 MOL1         0.3726
     142    H11     18.254512   18.487965   17.034449 H          1 MOL1         0.3726
     143    C5      20.102980   17.645739   16.400506 C.3        1 MOL1        -0.0677
     144    H12     20.100689   16.855476   17.154914 H          1 MOL1         0.1026
     145    H13     19.696922   17.255463   15.465096 H          1 MOL1         0.1026
     146    H14     21.123868   18.000065   16.243179 H          1 MOL1         0.1026
@<TRIPOS>BOND
    1     1     2    1
    2     1     3    1
    3     1     4    1
    4     4     5    1
    5     4     6    1
    6     6     7    1
    7     4     8    1
    8     8     9    1
    9     8    10    1
   10    10    11    1
   11     8    12    1
   12    12    13    1
   13    12    14    1
   14    14    15    1
   15     1    16    1
   16    14    16    1
   17    14    17    1
   18    17    18    1
   19    17    19    1
   20    17    20    1
   21    20    21    1
   22    22    23    1
   23    22    24    1
   24    22    25    1
   25    25    26    1
   26    25    27    1
   27    27    28    1
   28    25    29    1
   29    29    30    1
   30    29    31    1
   31    31    32    1
   32     3    33    1
   33    29    33    1
   34    33    34    1
   35    33    35    1
   36    35    36    1
   37    22    37    1
   38    35    37    1
   39    35    38    1
   40    38    39    1
   41    38    40    1
   42    38    41    1
   43    41    42    1
   44    43    44    1
   45    43    45    1
   46    43    46    1
   47    46    47    1
   48    46    48    1
   49    48    49    1
   50    46    50    1
   51    50    51    1
   52    50    52    1
   53    52    53    1
   54    24    54    1
   55    50    54    1
   56    54    55    1
   57    54    56    1
   58    56    57    1
   59    43    58    1
   60    56    58    1
   61    56    59    1
   62    59    60    1
   63    59    61    1
   64    59    62    1
   65    62    63    1
   66    64    65    1
   67    64    66    1
   68    64    67    1
   69    67    68    1
   70    67    69    1
   71    69    70    1
   72    67    71    1
   73    71    72    1
   74    71    73    1
   75    73    74    1
   76    45    75    1
   77    71    75    1
   78    75    76    1
   79    75    77    1
   80    77    78    1
   81    64    79    1
   82    77    79    1
   83    77    80    1
   84    80    81    1
   85    80    82    1
   86    80    83    1
   87    83    84    1
   88    85    86    1
   89    85    87    1
   90    85    88    1
   91    88    89    1
   92    88    90    1
   93    90    91    1
   94    88    92    1
   95    92    93    1
   96    92    94    1
   97    94    95    1
   98    66    96    1
   99    92    96    1
  100    96    97    1
  101    96    98    1
  102    98    99    1
  103    85   100    1
  104    98   100    1
  105    98   101    1
  106   101   102    1
  107   101   103    1
  108   101   104    1
  109   104   105    1
  110   106   107    1
  111    12   108    1
  112   106   108    1
  113   106   109    1
  114   109   110    1
  115   109   111    1
  116   111   112    1
  117   109   113    1
  118   113   114    1
  119   113   115    1
  120   115   116    1
  121    87   117    1
  122   113   117    1
  123   117   118    1
  124   117   119    1
  125   119   120    1
  126   106   121    1
  127   119   121    1
  128   119   122    1
  129   122   123    1
  130   122   124    1
  131   122   125    1
  132   125   126    1
  133   127   128    1
  134   127   129    1
  135   127   130    1
  136   127   131    1
  137   131   132    1
  138   131   133    1
  139   131   134    1
  140   134   135    1
  141   134   136    1
  142   134   137    1
  143   137   138    1
  144   137   139    1
  145   137   140    1
  146   140   141    1
  147   140   142    1
  148   140   143    1
  149   143   144    1
  150   143   145    1
  151   143   146    1
@<TRIPOS>SUBSTRUCTURE
       1 MOL1            1 RESIDUE      1      MOL     
       2 MOL1          146 RESIDUE      1      MOL     
@<SCITEGIC>MOL_PROPERTY
VM2 Rank
SciTegic.value.IntegerValue
3

@<SCITEGIC>MOL_PROPERTY
Conf_Id
SciTegic.value.IntegerValue
17460

@<SCITEGIC>MOL_PROPERTY
Probability
SciTegic.value.DoubleValue
2.23

@<SCITEGIC>MOL_PROPERTY
Sum Probability
SciTegic.value.DoubleValue
8.31

@<SCITEGIC>MOL_PROPERTY
Delta G
SciTegic.value.DoubleValue
0.228

@<SCITEGIC>MOL_PROPERTY
G
SciTegic.value.DoubleValue
576.324

@<SCITEGIC>MOL_PROPERTY
E
SciTegic.value.DoubleValue
383.567

@<SCITEGIC>MOL_PROPERTY
-TS
SciTegic.value.DoubleValue
192.757

@<SCITEGIC>MOL_PROPERTY
U+W
SciTegic.value.DoubleValue
254.796

@<SCITEGIC>MOL_PROPERTY
U
SciTegic.value.DoubleValue
318.051

@<SCITEGIC>MOL_PROPERTY
W
SciTegic.value.DoubleValue
-63.256

@<SCITEGIC>MOL_PROPERTY
W(PB)
SciTegic.value.DoubleValue
-69.220

@<SCITEGIC>MOL_PROPERTY
W(SA)
SciTegic.value.DoubleValue
5.964

@<SCITEGIC>MOL_PROPERTY
Valence
SciTegic.value.DoubleValue
145.768

@<SCITEGIC>MOL_PROPERTY
Coulomb
SciTegic.value.DoubleValue
195.151

@<SCITEGIC>MOL_PROPERTY
VdW
SciTegic.value.DoubleValue
-22.867

@<SCITEGIC>MOL_PROPERTY
VdW6
SciTegic.value.DoubleValue
-169.876

@<SCITEGIC>MOL_PROPERTY
VdW12
SciTegic.value.DoubleValue
147.008

@<SCITEGIC>MOL_PROPERTY
Bond
SciTegic.value.DoubleValue
4.295

@<SCITEGIC>MOL_PROPERTY
Angle
SciTegic.value.DoubleValue
9.470

@<SCITEGIC>MOL_PROPERTY
Pdih
SciTegic.value.DoubleValue
132.003

@<SCITEGIC>MOL_PROPERTY
Idih
SciTegic.value.DoubleValue
0.000

@<SCITEGIC>MOL_PROPERTY
Tether
SciTegic.value.DoubleValue
0.000

@<TRIPOS>MOLECULE
CD_guest-s9_vm2_rndm.mol2 : vm2 host+ligand conformer 4
         146         151           2
SMALL
USER_CHARGES
 
@<TRIPOS>ATOM
       1    C1      16.455453   15.338264   20.471971 C.3        1 MOL1         0.2972
       2    H1      15.417547   15.253908   20.125020 H          1 MOL1         0.0751
       3    O1      16.728158   16.648506   21.007267 O.3        1 MOL1        -0.3740
       4    C2      16.772536   14.261810   21.546378 C.3        1 MOL1         0.1003
       5    H2      16.608085   13.282292   21.078853 H          1 MOL1         0.0783
       6    O2      15.915033   14.379464   22.692225 O.3        1 MOL1        -0.5519
       7    H3      16.067576   15.278346   23.079833 H          1 MOL1         0.3769
       8    C3      18.256401   14.338600   21.978889 C.3        1 MOL1         0.1053
       9    H4      18.405022   15.286842   22.514525 H          1 MOL1         0.0783
      10    O3      18.560431   13.240439   22.844552 O.3        1 MOL1        -0.5519
      11    H5      17.800232   13.184993   23.466202 H          1 MOL1         0.3769
      12    C4      19.204823   14.322931   20.753806 C.3        1 MOL1         0.1018
      13    H6      19.227804   13.314092   20.320701 H          1 MOL1         0.0783
      14    C5      18.766168   15.336116   19.664229 C.3        1 MOL1         0.1043
      15    H7      18.939169   16.353696   20.037740 H          1 MOL1         0.0783
      16    O4      17.361973   15.130973   19.368561 O.3        1 MOL1        -0.3740
      17    C6      19.546493   15.168292   18.344964 C.3        1 MOL1         0.0138
      18    H8      19.332382   14.179796   17.917358 H          1 MOL1         0.0794
      19    H9      20.621633   15.217767   18.551482 H          1 MOL1         0.0794
      20    O5      19.182255   16.203120   17.429721 O.3        1 MOL1        -0.5486
      21    H10     18.204063   16.163558   17.351042 H          1 MOL1         0.3769
      22    C7      14.916856   20.154176   22.195525 C.3        1 MOL1         0.2972
      23    H11     14.252351   20.956695   22.541163 H          1 MOL1         0.0751
      24    O6      16.172392   20.669701   21.713242 O.3        1 MOL1        -0.3740
      25    C8      15.203773   19.162326   23.350035 C.3        1 MOL1         0.1003
      26    H12     14.243233   18.723623   23.650232 H          1 MOL1         0.0783
      27    O7      15.788802   19.833708   24.477676 O.3        1 MOL1        -0.5519
      28    H13     15.938993   20.774379   24.211692 H          1 MOL1         0.3769
      29    C9      16.126451   18.016361   22.873080 C.3        1 MOL1         0.1053
      30    H14     17.118179   18.442410   22.674868 H          1 MOL1         0.0783
      31    O8      16.226448   17.030582   23.905846 O.3        1 MOL1        -0.5519
      32    H15     16.398637   17.545349   24.726257 H          1 MOL1         0.3769
      33    C10     15.608864   17.361726   21.566958 C.3        1 MOL1         0.1018
      34    H16     14.777466   16.689920   21.818736 H          1 MOL1         0.0783
      35    C11     15.146545   18.401075   20.505122 C.3        1 MOL1         0.1043
      36    H17     16.041317   18.874919   20.080300 H          1 MOL1         0.0783
      37    O9      14.305808   19.409294   21.121684 O.3        1 MOL1        -0.3740
      38    C12     14.353529   17.782267   19.332419 C.3        1 MOL1         0.0138
      39    H18     15.016493   17.118900   18.761588 H          1 MOL1         0.0794
      40    H19     14.039220   18.587601   18.654991 H          1 MOL1         0.0794
      41    O10     13.214276   17.056396   19.802583 O.3        1 MOL1        -0.5486
      42    H20     12.669968   17.696351   20.313208 H          1 MOL1         0.3769
      43    C13     18.282823   24.163757   21.120484 C.3        1 MOL1         0.2972
      44    H21     18.627607   25.182617   20.903753 H          1 MOL1         0.0751
      45    O11     19.380242   23.244435   21.296914 O.3        1 MOL1        -0.3740
      46    C14     17.428416   24.147877   22.412995 C.3        1 MOL1         0.1003
      47    H22     16.549794   24.781550   22.235078 H          1 MOL1         0.0783
      48    O12     18.165553   24.671117   23.528666 O.3        1 MOL1        -0.5519
      49    H23     19.114314   24.415197   23.403578 H          1 MOL1         0.3769
      50    C15     16.928592   22.715318   22.715817 C.3        1 MOL1         0.1053
      51    H24     17.802175   22.097805   22.967065 H          1 MOL1         0.0783
      52    O13     16.027690   22.747453   23.826968 O.3        1 MOL1        -0.5519
      53    H25     16.447468   23.358967   24.473984 H          1 MOL1         0.3769
      54    C16     16.233104   22.087612   21.479938 C.3        1 MOL1         0.1018
      55    H26     15.234694   22.526360   21.349289 H          1 MOL1         0.0783
      56    C17     17.041410   22.285005   20.170568 C.3        1 MOL1         0.1043
      57    H27     17.920125   21.631232   20.202181 H          1 MOL1         0.0783
      58    O14     17.452155   23.669452   20.049548 O.3        1 MOL1        -0.3740
      59    C18     16.215626   21.925341   18.918335 C.3        1 MOL1         0.0138
      60    H28     15.420320   22.670022   18.780048 H          1 MOL1         0.0794
      61    H29     15.734329   20.950714   19.068657 H          1 MOL1         0.0794
      62    O15     17.063303   21.870957   17.769616 O.3        1 MOL1        -0.5486
      63    H30     17.490180   22.751687   17.693210 H          1 MOL1         0.3769
      64    C19     23.476903   22.754072   20.881546 C.3        1 MOL1         0.2972
      65    H31     24.545935   22.875928   20.668194 H          1 MOL1         0.0751
      66    O16     23.154397   21.374985   21.169352 O.3        1 MOL1        -0.3740
      67    C20     23.037120   23.684607   22.046524 C.3        1 MOL1         0.1003
      68    H32     23.226144   24.714857   21.717700 H          1 MOL1         0.0783
      69    O17     23.783270   23.445633   23.248585 O.3        1 MOL1        -0.5519
      70    H33     23.519999   22.547268   23.571481 H          1 MOL1         0.3769
      71    C21     21.519915   23.547439   22.313177 C.3        1 MOL1         0.1053
      72    H34     21.328202   22.533744   22.691286 H          1 MOL1         0.0783
      73    O18     21.117588   24.514346   23.288070 O.3        1 MOL1        -0.5519
      74    H35     21.808736   24.479983   23.986734 H          1 MOL1         0.3769
      75    C22     20.701144   23.741243   21.012943 C.3        1 MOL1         0.1018
      76    H36     20.698525   24.806060   20.744836 H          1 MOL1         0.0783
      77    C23     21.271686   22.913565   19.830596 C.3        1 MOL1         0.1043
      78    H37     21.064766   21.854610   20.017854 H          1 MOL1         0.0783
      79    O19     22.701118   23.137848   19.726971 O.3        1 MOL1        -0.3740
      80    C24     20.640790   23.289363   18.475385 C.3        1 MOL1         0.0138
      81    H38     20.871584   24.337486   18.242870 H          1 MOL1         0.0794
      82    H39     19.550534   23.191578   18.543092 H          1 MOL1         0.0794
      83    O20     21.141857   22.424214   17.455013 O.3        1 MOL1        -0.5486
      84    H40     22.120268   22.486557   17.508107 H          1 MOL1         0.3769
      85    C25     24.708437   17.798853   22.599442 C.3        1 MOL1         0.2972
      86    H41     25.316583   17.008762   23.058606 H          1 MOL1         0.0751
      87    O21     23.619591   17.255221   21.830011 O.3        1 MOL1        -0.3740
      88    C26     24.133708   18.740968   23.687715 C.3        1 MOL1         0.1003
      89    H42     24.988848   19.182548   24.215940 H          1 MOL1         0.0783
      90    O22     23.315460   18.029495   24.630557 O.3        1 MOL1        -0.5519
      91    H43     23.482709   17.065267   24.494505 H          1 MOL1         0.3769
      92    C27     23.318248   19.887848   23.047659 C.3        1 MOL1         0.1053
      93    H44     22.415706   19.450010   22.600145 H          1 MOL1         0.0783
      94    O23     22.949536   20.814072   24.073447 O.3        1 MOL1        -0.5519
      95    H45     22.609617   20.248986   24.803916 H          1 MOL1         0.3769
      96    C28     24.113810   20.607264   21.926617 C.3        1 MOL1         0.1018
      97    H46     24.884063   21.242113   22.383839 H          1 MOL1         0.0783
      98    C29     24.788890   19.605249   20.949649 C.3        1 MOL1         0.1043
      99    H47     24.010002   19.132404   20.337670 H          1 MOL1         0.0783
     100    O24     25.511014   18.602762   21.709654 O.3        1 MOL1        -0.3740
     101    C30     25.799361   20.281094   20.000397 C.3        1 MOL1         0.0138
     102    H48     26.619169   20.714956   20.588550 H          1 MOL1         0.0794
     103    H49     25.303223   21.096978   19.459438 H          1 MOL1         0.0794
     104    O25     26.300795   19.323286   19.066771 O.3        1 MOL1        -0.5486
     105    H50     26.649560   18.576753   19.602479 H          1 MOL1         0.3769
     106    C31     21.562487   13.770375   21.169942 C.3        1 MOL1         0.2972
     107    H51     21.193260   12.760184   20.952035 H          1 MOL1         0.0751
     108    O26     20.493695   14.737539   21.238547 O.3        1 MOL1        -0.3740
     109    C32     22.306939   13.789220   22.526513 C.3        1 MOL1         0.1003
     110    H52     23.180572   13.131018   22.432694 H          1 MOL1         0.0783
     111    O27     21.464370   13.305291   23.584060 O.3        1 MOL1        -0.5519
     112    H53     20.528291   13.495486   23.323416 H          1 MOL1         0.3769
     113    C33     22.815041   15.215111   22.847661 C.3        1 MOL1         0.1053
     114    H54     21.938429   15.850789   23.035387 H          1 MOL1         0.0783
     115    O28     23.632906   15.165212   24.021424 O.3        1 MOL1        -0.5519
     116    H55     23.159045   14.553432   24.630373 H          1 MOL1         0.3769
     117    C34     23.606474   15.826073   21.657725 C.3        1 MOL1         0.1018
     118    H56     24.622588   15.410129   21.630529 H          1 MOL1         0.0783
     119    C35     22.930792   15.583345   20.282534 C.3        1 MOL1         0.1043
     120    H57     22.061472   16.244536   20.209430 H          1 MOL1         0.0783
     121    O29     22.504319   14.203411   20.165885 O.3        1 MOL1        -0.3740
     122    C36     23.881678   15.903483   19.109052 C.3        1 MOL1         0.0138
     123    H58     24.704053   15.175694   19.098013 H          1 MOL1         0.0794
     124    H59     24.321276   16.898399   19.262726 H          1 MOL1         0.0794
     125    O30     23.168276   15.877067   17.870991 O.3        1 MOL1        -0.5486
     126    H60     22.798864   14.970290   17.786569 H          1 MOL1         0.3769
     127    C1      19.609699   19.367645   20.972010 C.3        1 MOL1        -0.2224
     128    H1      19.891924   18.392468   21.390580 H          1 MOL1         0.1052
     129    H2      20.277336   20.127710   21.398012 H          1 MOL1         0.1052
     130    H3      18.590927   19.592674   21.307220 H          1 MOL1         0.1052
     131    C2      19.683843   19.353536   19.429117 C.3        1 MOL1        -0.1209
     132    H4      19.366367   20.325453   19.026374 H          1 MOL1         0.1041
     133    H5      18.978767   18.607633   19.035634 H          1 MOL1         0.1041
     134    C3      21.109091   19.034776   18.933454 C.3        1 MOL1        -0.1274
     135    H6      21.811238   19.786886   19.312823 H          1 MOL1         0.1041
     136    H7      21.424595   18.068589   19.336521 H          1 MOL1         0.1041
     137    C4      21.179423   18.982867   17.395636 C.3        1 MOL1         0.0313
     138    H8      20.946509   19.966283   16.978388 H          1 MOL1         0.1015
     139    H9      20.433618   18.271349   17.030989 H          1 MOL1         0.1015
     140    N1      22.526390   18.541291   16.848742 N.4        1 MOL1        -0.4809
     141    H10     22.449738   18.374566   15.834658 H          1 MOL1         0.3726
     142    H11     22.787331   17.615983   17.247038 H          1 MOL1         0.3726
     143    C5      23.605729   19.580555   17.127621 C.3        1 MOL1        -0.0677
     144    H12     23.319034   20.527710   16.666248 H          1 MOL1         0.1026
     145    H13     23.714506   19.710568   18.205595 H          1 MOL1         0.1026
     146    H14     24.553184   19.235249   16.707682 H          1 MOL1         0.1026
@<TRIPOS>BOND
    1     1     2    1
    2     1     3    1
    3     1     4    1
    4     4     5    1
    5     4     6    1
    6     6     7    1
    7     4     8    1
    8     8     9    1
    9     8    10    1
   10    10    11    1
   11     8    12    1
   12    12    13    1
   13    12    14    1
   14    14    15    1
   15     1    16    1
   16    14    16    1
   17    14    17    1
   18    17    18    1
   19    17    19    1
   20    17    20    1
   21    20    21    1
   22    22    23    1
   23    22    24    1
   24    22    25    1
   25    25    26    1
   26    25    27    1
   27    27    28    1
   28    25    29    1
   29    29    30    1
   30    29    31    1
   31    31    32    1
   32     3    33    1
   33    29    33    1
   34    33    34    1
   35    33    35    1
   36    35    36    1
   37    22    37    1
   38    35    37    1
   39    35    38    1
   40    38    39    1
   41    38    40    1
   42    38    41    1
   43    41    42    1
   44    43    44    1
   45    43    45    1
   46    43    46    1
   47    46    47    1
   48    46    48    1
   49    48    49    1
   50    46    50    1
   51    50    51    1
   52    50    52    1
   53    52    53    1
   54    24    54    1
   55    50    54    1
   56    54    55    1
   57    54    56    1
   58    56    57    1
   59    43    58    1
   60    56    58    1
   61    56    59    1
   62    59    60    1
   63    59    61    1
   64    59    62    1
   65    62    63    1
   66    64    65    1
   67    64    66    1
   68    64    67    1
   69    67    68    1
   70    67    69    1
   71    69    70    1
   72    67    71    1
   73    71    72    1
   74    71    73    1
   75    73    74    1
   76    45    75    1
   77    71    75    1
   78    75    76    1
   79    75    77    1
   80    77    78    1
   81    64    79    1
   82    77    79    1
   83    77    80    1
   84    80    81    1
   85    80    82    1
   86    80    83    1
   87    83    84    1
   88    85    86    1
   89    85    87    1
   90    85    88    1
   91    88    89    1
   92    88    90    1
   93    90    91    1
   94    88    92    1
   95    92    93    1
   96    92    94    1
   97    94    95    1
   98    66    96    1
   99    92    96    1
  100    96    97    1
  101    96    98    1
  102    98    99    1
  103    85   100    1
  104    98   100    1
  105    98   101    1
  106   101   102    1
  107   101   103    1
  108   101   104    1
  109   104   105    1
  110   106   107    1
  111    12   108    1
  112   106   108    1
  113   106   109    1
  114   109   110    1
  115   109   111    1
  116   111   112    1
  117   109   113    1
  118   113   114    1
  119   113   115    1
  120   115   116    1
  121    87   117    1
  122   113   117    1
  123   117   118    1
  124   117   119    1
  125   119   120    1
  126   106   121    1
  127   119   121    1
  128   119   122    1
  129   122   123    1
  130   122   124    1
  131   122   125    1
  132   125   126    1
  133   127   128    1
  134   127   129    1
  135   127   130    1
  136   127   131    1
  137   131   132    1
  138   131   133    1
  139   131   134    1
  140   134   135    1
  141   134   136    1
  142   134   137    1
  143   137   138    1
  144   137   139    1
  145   137   140    1
  146   140   141    1
  147   140   142    1
  148   140   143    1
  149   143   144    1
  150   143   145    1
  151   143   146    1
@<TRIPOS>SUBSTRUCTURE
       1 MOL1            1 RESIDUE      1      MOL     
       2 MOL1          146 RESIDUE      1      MOL     
@<SCITEGIC>MOL_PROPERTY
VM2 Rank
SciTegic.value.IntegerValue
4

@<SCITEGIC>MOL_PROPERTY
Conf_Id
SciTegic.value.IntegerValue
22797

@<SCITEGIC>MOL_PROPERTY
Probability
SciTegic.value.DoubleValue
1.87

@<SCITEGIC>MOL_PROPERTY
Sum Probability
SciTegic.value.DoubleValue
10.18

@<SCITEGIC>MOL_PROPERTY
Delta G
SciTegic.value.DoubleValue
0.334

@<SCITEGIC>MOL_PROPERTY
G
SciTegic.value.DoubleValue
576.430

@<SCITEGIC>MOL_PROPERTY
E
SciTegic.value.DoubleValue
384.084

@<SCITEGIC>MOL_PROPERTY
-TS
SciTegic.value.DoubleValue
192.346

@<SCITEGIC>MOL_PROPERTY
U+W
SciTegic.value.DoubleValue
255.313

@<SCITEGIC>MOL_PROPERTY
U
SciTegic.value.DoubleValue
318.566

@<SCITEGIC>MOL_PROPERTY
W
SciTegic.value.DoubleValue
-63.253

@<SCITEGIC>MOL_PROPERTY
W(PB)
SciTegic.value.DoubleValue
-69.205

@<SCITEGIC>MOL_PROPERTY
W(SA)
SciTegic.value.DoubleValue
5.952

@<SCITEGIC>MOL_PROPERTY
Valence
SciTegic.value.DoubleValue
147.009

@<SCITEGIC>MOL_PROPERTY
Coulomb
SciTegic.value.DoubleValue
195.337

@<SCITEGIC>MOL_PROPERTY
VdW
SciTegic.value.DoubleValue
-23.780

@<SCITEGIC>MOL_PROPERTY
VdW6
SciTegic.value.DoubleValue
-169.156

@<SCITEGIC>MOL_PROPERTY
VdW12
SciTegic.value.DoubleValue
145.377

@<SCITEGIC>MOL_PROPERTY
Bond
SciTegic.value.DoubleValue
4.229

@<SCITEGIC>MOL_PROPERTY
Angle
SciTegic.value.DoubleValue
9.435

@<SCITEGIC>MOL_PROPERTY
Pdih
SciTegic.value.DoubleValue
133.345

@<SCITEGIC>MOL_PROPERTY
Idih
SciTegic.value.DoubleValue
0.000

@<SCITEGIC>MOL_PROPERTY
Tether
SciTegic.value.DoubleValue
0.000

@<TRIPOS>MOLECULE
CD_guest-s9_vm2_rndm.mol2 : vm2 host+ligand conformer 5
         146         151           2
SMALL
USER_CHARGES
 
@<TRIPOS>ATOM
       1    C1      16.333701   15.351839   21.820189 C.3        1 MOL1         0.2972
       2    H1      15.289966   15.203530   22.125645 H          1 MOL1         0.0751
       3    O1      16.513300   16.606178   21.132290 O.3        1 MOL1        -0.3740
       4    C2      17.271770   15.306764   23.055512 C.3        1 MOL1         0.1003
       5    H2      17.153730   14.315876   23.513214 H          1 MOL1         0.0783
       6    O2      16.935816   16.313536   24.023531 O.3        1 MOL1        -0.5519
       7    H3      16.019279   16.620816   23.821365 H          1 MOL1         0.3769
       8    C3      18.748652   15.467722   22.630611 C.3        1 MOL1         0.1053
       9    H4      18.877582   16.488488   22.249142 H          1 MOL1         0.0783
      10    O3      19.584521   15.268140   23.774468 O.3        1 MOL1        -0.5519
      11    H5      19.165739   15.808757   24.482049 H          1 MOL1         0.3769
      12    C4      19.134151   14.477024   21.503803 C.3        1 MOL1         0.1018
      13    H6      19.246457   13.475203   21.938558 H          1 MOL1         0.0783
      14    C5      18.077389   14.434645   20.364105 C.3        1 MOL1         0.1043
      15    H7      18.142220   15.372220   19.797519 H          1 MOL1         0.0783
      16    O4      16.746788   14.297848   20.923791 O.3        1 MOL1        -0.3740
      17    C6      18.292721   13.272343   19.369260 C.3        1 MOL1         0.0138
      18    H8      19.247517   13.419121   18.847529 H          1 MOL1         0.0794
      19    H9      17.498266   13.303380   18.611566 H          1 MOL1         0.0794
      20    O5      18.289767   12.009347   20.040018 O.3        1 MOL1        -0.5486
      21    H10     17.425752   11.944832   20.504576 H          1 MOL1         0.3769
      22    C7      14.667963   20.241711   20.604185 C.3        1 MOL1         0.2972
      23    H11     14.032783   21.104076   20.363856 H          1 MOL1         0.0751
      24    O6      16.030204   20.643331   20.869324 O.3        1 MOL1        -0.3740
      25    C8      14.102950   19.441431   21.807903 C.3        1 MOL1         0.1003
      26    H12     13.126666   19.046663   21.497443 H          1 MOL1         0.0783
      27    O7      13.916661   20.263278   22.969281 O.3        1 MOL1        -0.5519
      28    H13     14.817911   20.548496   23.264843 H          1 MOL1         0.3769
      29    C9      15.017486   18.236912   22.138521 C.3        1 MOL1         0.1053
      30    H14     15.970168   18.629871   22.520422 H          1 MOL1         0.0783
      31    O8      14.382543   17.439423   23.144268 O.3        1 MOL1        -0.5519
      32    H15     13.980641   18.087262   23.767159 H          1 MOL1         0.3769
      33    C10     15.323040   17.379927   20.877116 C.3        1 MOL1         0.1018
      34    H16     14.464547   16.733884   20.649537 H          1 MOL1         0.0783
      35    C11     15.647677   18.235001   19.623485 C.3        1 MOL1         0.1043
      36    H17     16.657027   18.643336   19.739886 H          1 MOL1         0.0783
      37    O9      14.698207   19.321365   19.492411 O.3        1 MOL1        -0.3740
      38    C12     15.611326   17.395760   18.328269 C.3        1 MOL1         0.0138
      39    H18     14.572383   17.119710   18.103168 H          1 MOL1         0.0794
      40    H19     16.175365   16.466415   18.484829 H          1 MOL1         0.0794
      41    O10     16.184946   18.132645   17.246106 O.3        1 MOL1        -0.5486
      42    H20     15.675449   18.972108   17.188232 H          1 MOL1         0.3769
      43    C13     18.476541   23.778758   21.986716 C.3        1 MOL1         0.2972
      44    H21     18.907911   24.722915   22.342668 H          1 MOL1         0.0751
      45    O11     19.457510   22.965429   21.310906 O.3        1 MOL1        -0.3740
      46    C14     17.886272   22.972378   23.172197 C.3        1 MOL1         0.1003
      47    H22     17.101094   23.591786   23.625066 H          1 MOL1         0.0783
      48    O12     18.882749   22.675798   24.163966 O.3        1 MOL1        -0.5519
      49    H23     19.632090   23.302838   24.020171 H          1 MOL1         0.3769
      50    C15     17.239191   21.660476   22.673325 C.3        1 MOL1         0.1053
      51    H24     18.041511   21.011900   22.297053 H          1 MOL1         0.0783
      52    O13     16.580171   21.025091   23.772517 O.3        1 MOL1        -0.5519
      53    H25     17.237398   21.056785   24.504279 H          1 MOL1         0.3769
      54    C16     16.239229   21.913449   21.515533 C.3        1 MOL1         0.1018
      55    H26     15.309180   22.323938   21.930333 H          1 MOL1         0.0783
      56    C17     16.808869   22.876606   20.435898 C.3        1 MOL1         0.1043
      57    H27     17.577331   22.337885   19.865620 H          1 MOL1         0.0783
      58    O14     17.399383   24.042520   21.062659 O.3        1 MOL1        -0.3740
      59    C18     15.743072   23.368069   19.431192 C.3        1 MOL1         0.0138
      60    H28     15.365496   22.508519   18.861624 H          1 MOL1         0.0794
      61    H29     16.220502   24.049879   18.714709 H          1 MOL1         0.0794
      62    O15     14.664545   24.027203   20.101021 O.3        1 MOL1        -0.5486
      63    H30     15.066222   24.766921   20.609099 H          1 MOL1         0.3769
      64    C19     23.581095   22.739377   20.909328 C.3        1 MOL1         0.2972
      65    H31     24.643903   22.904550   20.690481 H          1 MOL1         0.0751
      66    O16     23.307034   21.349034   21.178605 O.3        1 MOL1        -0.3740
      67    C20     23.109824   23.615224   22.101805 C.3        1 MOL1         0.1003
      68    H32     23.245282   24.662012   21.799821 H          1 MOL1         0.0783
      69    O17     23.880106   23.377383   23.289365 O.3        1 MOL1        -0.5519
      70    H33     23.708015   22.440692   23.561836 H          1 MOL1         0.3769
      71    C21     21.603483   23.396570   22.384815 C.3        1 MOL1         0.1053
      72    H34     21.471951   22.368253   22.750099 H          1 MOL1         0.0783
      73    O18     21.189358   24.327311   23.391382 O.3        1 MOL1        -0.5519
      74    H35     21.936979   24.358639   24.031327 H          1 MOL1         0.3769
      75    C22     20.751894   23.562604   21.093408 C.3        1 MOL1         0.1018
      76    H36     20.663259   24.627012   20.837948 H          1 MOL1         0.0783
      77    C23     21.364877   22.808044   19.885111 C.3        1 MOL1         0.1043
      78    H37     21.226265   21.732829   20.044806 H          1 MOL1         0.0783
      79    O19     22.776004   23.119570   19.773657 O.3        1 MOL1        -0.3740
      80    C24     20.687532   23.182530   18.551129 C.3        1 MOL1         0.0138
      81    H38     20.932070   24.222676   18.297253 H          1 MOL1         0.0794
      82    H39     19.597607   23.113623   18.665144 H          1 MOL1         0.0794
      83    O20     21.122990   22.292992   17.520844 O.3        1 MOL1        -0.5486
      84    H40     22.104934   22.334103   17.519302 H          1 MOL1         0.3769
      85    C25     24.917807   17.719664   22.210995 C.3        1 MOL1         0.2972
      86    H41     25.512086   16.858250   22.541982 H          1 MOL1         0.0751
      87    O21     23.747368   17.313534   21.473779 O.3        1 MOL1        -0.3740
      88    C26     24.474142   18.576345   23.424309 C.3        1 MOL1         0.1003
      89    H42     25.385113   18.957498   23.904008 H          1 MOL1         0.0783
      90    O22     23.725817   17.806465   24.378834 O.3        1 MOL1        -0.5519
      91    H43     23.817800   16.855934   24.125687 H          1 MOL1         0.3769
      92    C27     23.633873   19.784324   22.953336 C.3        1 MOL1         0.1053
      93    H44     22.688854   19.395042   22.553488 H          1 MOL1         0.0783
      94    O23     23.367298   20.634093   24.073021 O.3        1 MOL1        -0.5519
      95    H45     23.078841   20.019513   24.785332 H          1 MOL1         0.3769
      96    C28     24.340204   20.584517   21.828683 C.3        1 MOL1         0.1018
      97    H46     25.108263   21.226324   22.279959 H          1 MOL1         0.0783
      98    C29     24.981888   19.675645   20.740189 C.3        1 MOL1         0.1043
      99    H47     24.176499   19.278462   20.108288 H          1 MOL1         0.0783
     100    O24     25.701842   18.575936   21.353725 O.3        1 MOL1        -0.3740
     101    C30     25.964806   20.426233   19.814425 C.3        1 MOL1         0.0138
     102    H48     25.411577   21.184068   19.244199 H          1 MOL1         0.0794
     103    H49     26.381620   19.713718   19.090004 H          1 MOL1         0.0794
     104    O25     27.015133   21.042908   20.564386 O.3        1 MOL1        -0.5486
     105    H50     27.456619   20.321713   21.066020 H          1 MOL1         0.3769
     106    C31     21.415931   13.990575   20.721055 C.3        1 MOL1         0.2972
     107    H51     21.003636   13.016842   20.426738 H          1 MOL1         0.0751
     108    O26     20.367529   14.960946   20.933909 O.3        1 MOL1        -0.3740
     109    C32     22.306167   13.859592   21.987878 C.3        1 MOL1         0.1003
     110    H52     23.134205   13.188538   21.724571 H          1 MOL1         0.0783
     111    O27     21.595704   13.295329   23.099797 O.3        1 MOL1        -0.5519
     112    H53     20.897653   13.950478   23.353913 H          1 MOL1         0.3769
     113    C33     22.914626   15.227021   22.380471 C.3        1 MOL1         0.1053
     114    H54     22.094657   15.879357   22.712336 H          1 MOL1         0.0783
     115    O28     23.843216   15.028547   23.452037 O.3        1 MOL1        -0.5519
     116    H55     23.416739   14.362803   24.038667 H          1 MOL1         0.3769
     117    C34     23.615587   15.911378   21.174684 C.3        1 MOL1         0.1018
     118    H56     24.591055   15.442607   20.988206 H          1 MOL1         0.0783
     119    C35     22.768198   15.846043   19.878646 C.3        1 MOL1         0.1043
     120    H57     21.939616   16.552936   19.985720 H          1 MOL1         0.0783
     121    O29     22.265845   14.501626   19.673657 O.3        1 MOL1        -0.3740
     122    C36     23.573216   16.246603   18.626144 C.3        1 MOL1         0.0138
     123    H58     24.377578   15.517325   18.461212 H          1 MOL1         0.0794
     124    H59     24.038629   17.227116   18.791923 H          1 MOL1         0.0794
     125    O30     22.704498   16.304089   17.493213 O.3        1 MOL1        -0.5486
     126    H60     22.274239   15.423093   17.442866 H          1 MOL1         0.3769
     127    C1      20.086948   18.943956   21.176529 C.3        1 MOL1        -0.2224
     128    H1      19.022755   18.871013   21.437873 H          1 MOL1         0.1052
     129    H2      20.594011   18.041732   21.543664 H          1 MOL1         0.1052
     130    H3      20.503553   19.807006   21.712463 H          1 MOL1         0.1052
     131    C2      20.276432   19.107047   19.653223 C.3        1 MOL1        -0.1209
     132    H4      21.349528   19.149974   19.416871 H          1 MOL1         0.1041
     133    H5      19.842012   20.065425   19.335628 H          1 MOL1         0.1041
     134    C3      19.605981   17.966065   18.859619 C.3        1 MOL1        -0.1274
     135    H6      20.017010   16.996630   19.159230 H          1 MOL1         0.1041
     136    H7      18.540319   17.935793   19.100038 H          1 MOL1         0.1041
     137    C4      19.777557   18.155180   17.340371 C.3        1 MOL1         0.0313
     138    H8      20.816943   17.968374   17.056296 H          1 MOL1         0.1015
     139    H9      19.532499   19.188236   17.079923 H          1 MOL1         0.1015
     140    N1      18.882553   17.259440   16.501316 N.4        1 MOL1        -0.4809
     141    H10     18.955561   17.527976   15.508740 H          1 MOL1         0.3726
     142    H11     17.886405   17.431540   16.748108 H          1 MOL1         0.3726
     143    C5      19.251183   15.791151   16.675016 C.3        1 MOL1        -0.0677
     144    H12     19.135848   15.511721   17.723451 H          1 MOL1         0.1026
     145    H13     18.591277   15.180885   16.054631 H          1 MOL1         0.1026
     146    H14     20.288205   15.646259   16.365031 H          1 MOL1         0.1026
@<TRIPOS>BOND
    1     1     2    1
    2     1     3    1
    3     1     4    1
    4     4     5    1
    5     4     6    1
    6     6     7    1
    7     4     8    1
    8     8     9    1
    9     8    10    1
   10    10    11    1
   11     8    12    1
   12    12    13    1
   13    12    14    1
   14    14    15    1
   15     1    16    1
   16    14    16    1
   17    14    17    1
   18    17    18    1
   19    17    19    1
   20    17    20    1
   21    20    21    1
   22    22    23    1
   23    22    24    1
   24    22    25    1
   25    25    26    1
   26    25    27    1
   27    27    28    1
   28    25    29    1
   29    29    30    1
   30    29    31    1
   31    31    32    1
   32     3    33    1
   33    29    33    1
   34    33    34    1
   35    33    35    1
   36    35    36    1
   37    22    37    1
   38    35    37    1
   39    35    38    1
   40    38    39    1
   41    38    40    1
   42    38    41    1
   43    41    42    1
   44    43    44    1
   45    43    45    1
   46    43    46    1
   47    46    47    1
   48    46    48    1
   49    48    49    1
   50    46    50    1
   51    50    51    1
   52    50    52    1
   53    52    53    1
   54    24    54    1
   55    50    54    1
   56    54    55    1
   57    54    56    1
   58    56    57    1
   59    43    58    1
   60    56    58    1
   61    56    59    1
   62    59    60    1
   63    59    61    1
   64    59    62    1
   65    62    63    1
   66    64    65    1
   67    64    66    1
   68    64    67    1
   69    67    68    1
   70    67    69    1
   71    69    70    1
   72    67    71    1
   73    71    72    1
   74    71    73    1
   75    73    74    1
   76    45    75    1
   77    71    75    1
   78    75    76    1
   79    75    77    1
   80    77    78    1
   81    64    79    1
   82    77    79    1
   83    77    80    1
   84    80    81    1
   85    80    82    1
   86    80    83    1
   87    83    84    1
   88    85    86    1
   89    85    87    1
   90    85    88    1
   91    88    89    1
   92    88    90    1
   93    90    91    1
   94    88    92    1
   95    92    93    1
   96    92    94    1
   97    94    95    1
   98    66    96    1
   99    92    96    1
  100    96    97    1
  101    96    98    1
  102    98    99    1
  103    85   100    1
  104    98   100    1
  105    98   101    1
  106   101   102    1
  107   101   103    1
  108   101   104    1
  109   104   105    1
  110   106   107    1
  111    12   108    1
  112   106   108    1
  113   106   109    1
  114   109   110    1
  115   109   111    1
  116   111   112    1
  117   109   113    1
  118   113   114    1
  119   113   115    1
  120   115   116    1
  121    87   117    1
  122   113   117    1
  123   117   118    1
  124   117   119    1
  125   119   120    1
  126   106   121    1
  127   119   121    1
  128   119   122    1
  129   122   123    1
  130   122   124    1
  131   122   125    1
  132   125   126    1
  133   127   128    1
  134   127   129    1
  135   127   130    1
  136   127   131    1
  137   131   132    1
  138   131   133    1
  139   131   134    1
  140   134   135    1
  141   134   136    1
  142   134   137    1
  143   137   138    1
  144   137   139    1
  145   137   140    1
  146   140   141    1
  147   140   142    1
  148   140   143    1
  149   143   144    1
  150   143   145    1
  151   143   146    1
@<TRIPOS>SUBSTRUCTURE
       1 MOL1            1 RESIDUE      1      MOL     
       2 MOL1          146 RESIDUE      1      MOL     
@<SCITEGIC>MOL_PROPERTY
VM2 Rank
SciTegic.value.IntegerValue
5

@<SCITEGIC>MOL_PROPERTY
Conf_Id
SciTegic.value.IntegerValue
24927

@<SCITEGIC>MOL_PROPERTY
Probability
SciTegic.value.DoubleValue
1.47

@<SCITEGIC>MOL_PROPERTY
Sum Probability
SciTegic.value.DoubleValue
11.64

@<SCITEGIC>MOL_PROPERTY
Delta G
SciTegic.value.DoubleValue
0.477

@<SCITEGIC>MOL_PROPERTY
G
SciTegic.value.DoubleValue
576.572

@<SCITEGIC>MOL_PROPERTY
E
SciTegic.value.DoubleValue
383.653

@<SCITEGIC>MOL_PROPERTY
-TS
SciTegic.value.DoubleValue
192.919

@<SCITEGIC>MOL_PROPERTY
U+W
SciTegic.value.DoubleValue
254.882

@<SCITEGIC>MOL_PROPERTY
U
SciTegic.value.DoubleValue
322.305

@<SCITEGIC>MOL_PROPERTY
W
SciTegic.value.DoubleValue
-67.422

@<SCITEGIC>MOL_PROPERTY
W(PB)
SciTegic.value.DoubleValue
-73.458

@<SCITEGIC>MOL_PROPERTY
W(SA)
SciTegic.value.DoubleValue
6.036

@<SCITEGIC>MOL_PROPERTY
Valence
SciTegic.value.DoubleValue
143.895

@<SCITEGIC>MOL_PROPERTY
Coulomb
SciTegic.value.DoubleValue
198.429

@<SCITEGIC>MOL_PROPERTY
VdW
SciTegic.value.DoubleValue
-20.019

@<SCITEGIC>MOL_PROPERTY
VdW6
SciTegic.value.DoubleValue
-168.981

@<SCITEGIC>MOL_PROPERTY
VdW12
SciTegic.value.DoubleValue
148.962

@<SCITEGIC>MOL_PROPERTY
Bond
SciTegic.value.DoubleValue
4.498

@<SCITEGIC>MOL_PROPERTY
Angle
SciTegic.value.DoubleValue
10.831

@<SCITEGIC>MOL_PROPERTY
Pdih
SciTegic.value.DoubleValue
128.566

@<SCITEGIC>MOL_PROPERTY
Idih
SciTegic.value.DoubleValue
0.000

@<SCITEGIC>MOL_PROPERTY
Tether
SciTegic.value.DoubleValue
0.000

@<TRIPOS>MOLECULE
CD_guest-s9_vm2_rndm.mol2 : vm2 host+ligand conformer 6
         146         151           2
SMALL
USER_CHARGES
 
@<TRIPOS>ATOM
       1    C1      16.392557   15.313197   21.862514 C.3        1 MOL1         0.2972
       2    H1      15.346161   15.150220   22.151125 H          1 MOL1         0.0751
       3    O1      16.571475   16.582311   21.203549 O.3        1 MOL1        -0.3740
       4    C2      17.312607   15.251962   23.109224 C.3        1 MOL1         0.1003
       5    H2      17.187930   14.255343   23.552450 H          1 MOL1         0.0783
       6    O2      16.959936   16.246710   24.083974 O.3        1 MOL1        -0.5519
       7    H3      16.057006   16.575182   23.854678 H          1 MOL1         0.3769
       8    C3      18.795903   15.418405   22.708355 C.3        1 MOL1         0.1053
       9    H4      18.930924   16.446948   22.350797 H          1 MOL1         0.0783
      10    O3      19.611444   15.196694   23.862120 O.3        1 MOL1        -0.5519
      11    H5      19.181220   15.724954   24.572287 H          1 MOL1         0.3769
      12    C4      19.199536   14.452834   21.563711 C.3        1 MOL1         0.1018
      13    H6      19.299449   13.436954   21.968502 H          1 MOL1         0.0783
      14    C5      18.162433   14.451472   20.406622 C.3        1 MOL1         0.1043
      15    H7      18.235090   15.405391   19.869140 H          1 MOL1         0.0783
      16    O4      16.829184   14.282324   20.951752 O.3        1 MOL1        -0.3740
      17    C6      18.396212   13.313648   19.392077 C.3        1 MOL1         0.0138
      18    H8      18.266655   12.344950   19.893132 H          1 MOL1         0.0794
      19    H9      19.426467   13.364764   19.016848 H          1 MOL1         0.0794
      20    O5      17.482630   13.444010   18.301612 O.3        1 MOL1        -0.5486
      21    H10     16.585206   13.483029   18.700447 H          1 MOL1         0.3769
      22    C7      14.679120   20.176889   20.601178 C.3        1 MOL1         0.2972
      23    H11     14.035020   21.027559   20.343584 H          1 MOL1         0.0751
      24    O6      16.033654   20.599616   20.873300 O.3        1 MOL1        -0.3740
      25    C8      14.113812   19.384870   21.810525 C.3        1 MOL1         0.1003
      26    H12     13.146803   18.970708   21.496366 H          1 MOL1         0.0783
      27    O7      13.903993   20.219743   22.958494 O.3        1 MOL1        -0.5519
      28    H13     14.798147   20.520447   23.260072 H          1 MOL1         0.3769
      29    C9      15.044196   18.199814   22.165819 C.3        1 MOL1         0.1053
      30    H14     15.987489   18.613040   22.549525 H          1 MOL1         0.0783
      31    O8      14.416996   17.403728   23.177403 O.3        1 MOL1        -0.5519
      32    H15     14.004644   18.051750   23.793052 H          1 MOL1         0.3769
      33    C10     15.373530   17.331539   20.919104 C.3        1 MOL1         0.1018
      34    H16     14.527171   16.669355   20.692351 H          1 MOL1         0.0783
      35    C11     15.697689   18.172425   19.655983 C.3        1 MOL1         0.1043
      36    H17     16.699169   18.598671   19.775121 H          1 MOL1         0.0783
      37    O9      14.732672   19.242229   19.501765 O.3        1 MOL1        -0.3740
      38    C12     15.687325   17.312599   18.373448 C.3        1 MOL1         0.0138
      39    H18     14.655943   17.011475   18.145955 H          1 MOL1         0.0794
      40    H19     16.269759   16.397420   18.547231 H          1 MOL1         0.0794
      41    O10     16.252590   18.044633   17.283660 O.3        1 MOL1        -0.5486
      42    H20     15.729130   18.874183   17.211884 H          1 MOL1         0.3769
      43    C13     18.444706   23.762817   21.976464 C.3        1 MOL1         0.2972
      44    H21     18.868258   24.713314   22.324816 H          1 MOL1         0.0751
      45    O11     19.435532   22.946020   21.319430 O.3        1 MOL1        -0.3740
      46    C14     17.850090   22.967553   23.166756 C.3        1 MOL1         0.1003
      47    H22     17.058161   23.587691   23.606678 H          1 MOL1         0.0783
      48    O12     18.841942   22.688858   24.168435 O.3        1 MOL1        -0.5519
      49    H23     19.591132   23.314601   24.018006 H          1 MOL1         0.3769
      50    C15     17.214491   21.646128   22.678366 C.3        1 MOL1         0.1053
      51    H24     18.023784   20.997644   22.317181 H          1 MOL1         0.0783
      52    O13     16.550011   21.020462   23.779801 O.3        1 MOL1        -0.5519
      53    H25     17.200339   21.066310   24.516954 H          1 MOL1         0.3769
      54    C16     16.223303   21.878144   21.508382 C.3        1 MOL1         0.1018
      55    H26     15.285152   22.283916   21.909318 H          1 MOL1         0.0783
      56    C17     16.794499   22.833969   20.423076 C.3        1 MOL1         0.1043
      57    H27     17.570325   22.294178   19.863951 H          1 MOL1         0.0783
      58    O14     17.373511   24.010074   21.041137 O.3        1 MOL1        -0.3740
      59    C18     15.732775   23.307812   19.405710 C.3        1 MOL1         0.0138
      60    H28     15.363937   22.439689   18.843465 H          1 MOL1         0.0794
      61    H29     16.211149   23.984210   18.684742 H          1 MOL1         0.0794
      62    O15     14.646064   23.968291   20.060806 O.3        1 MOL1        -0.5486
      63    H30     15.040231   24.715550   20.563707 H          1 MOL1         0.3769
      64    C19     23.564785   22.773145   20.921850 C.3        1 MOL1         0.2972
      65    H31     24.622903   22.959004   20.700122 H          1 MOL1         0.0751
      66    O16     23.320907   21.379241   21.205911 O.3        1 MOL1        -0.3740
      67    C20     23.077639   23.659125   22.099965 C.3        1 MOL1         0.1003
      68    H32     23.190505   24.702867   21.778639 H          1 MOL1         0.0783
      69    O17     23.858457   23.460440   23.287454 O.3        1 MOL1        -0.5519
      70    H33     23.688814   22.533128   23.591428 H          1 MOL1         0.3769
      71    C21     21.576194   23.415644   22.388278 C.3        1 MOL1         0.1053
      72    H34     21.462896   22.389093   22.764261 H          1 MOL1         0.0783
      73    O18     21.145284   24.349601   23.384723 O.3        1 MOL1        -0.5519
      74    H35     21.892098   24.402593   24.024053 H          1 MOL1         0.3769
      75    C22     20.723572   23.553309   21.094176 C.3        1 MOL1         0.1018
      76    H36     20.623741   24.612791   20.822793 H          1 MOL1         0.0783
      77    C23     21.347537   22.788179   19.898217 C.3        1 MOL1         0.1043
      78    H37     21.226618   21.713706   20.076260 H          1 MOL1         0.0783
      79    O19     22.753351   23.121338   19.780811 O.3        1 MOL1        -0.3740
      80    C24     20.663909   23.129308   18.558460 C.3        1 MOL1         0.0138
      81    H38     20.897922   24.166446   18.283263 H          1 MOL1         0.0794
      82    H39     19.574952   23.052335   18.675873 H          1 MOL1         0.0794
      83    O20     21.105609   22.223422   17.545271 O.3        1 MOL1        -0.5486
      84    H40     22.087403   22.269253   17.543834 H          1 MOL1         0.3769
      85    C25     24.923872   17.786484   22.370108 C.3        1 MOL1         0.2972
      86    H41     25.514110   16.935667   22.734102 H          1 MOL1         0.0751
      87    O21     23.764673   17.360172   21.628534 O.3        1 MOL1        -0.3740
      88    C26     24.457039   18.671926   23.551290 C.3        1 MOL1         0.1003
      89    H42     25.358000   19.062931   24.041804 H          1 MOL1         0.0783
      90    O22     23.687892   17.920942   24.504765 O.3        1 MOL1        -0.5519
      91    H43     23.773407   16.966772   24.262802 H          1 MOL1         0.3769
      92    C27     23.628609   19.869277   23.032597 C.3        1 MOL1         0.1053
      93    H44     22.687106   19.471178   22.632671 H          1 MOL1         0.0783
      94    O23     23.350514   20.749101   24.125421 O.3        1 MOL1        -0.5519
      95    H45     23.046556   20.155350   24.848905 H          1 MOL1         0.3769
      96    C28     24.348865   20.636286   21.890740 C.3        1 MOL1         0.1018
      97    H46     25.115814   21.291053   22.325360 H          1 MOL1         0.0783
      98    C29     25.000535   19.693702   20.838192 C.3        1 MOL1         0.1043
      99    H47     24.207063   19.279661   20.201522 H          1 MOL1         0.0783
     100    O24     25.718200   18.623633   21.505381 O.3        1 MOL1        -0.3740
     101    C30     26.007481   20.425309   19.926999 C.3        1 MOL1         0.0138
     102    H48     26.820975   20.836397   20.539808 H          1 MOL1         0.0794
     103    H49     25.504310   21.262987   19.427023 H          1 MOL1         0.0794
     104    O25     26.523715   19.520317   18.949155 O.3        1 MOL1        -0.5486
     105    H50     26.844950   18.736525   19.449120 H          1 MOL1         0.3769
     106    C31     21.515250   13.998686   20.834196 C.3        1 MOL1         0.2972
     107    H51     21.129549   13.016817   20.533420 H          1 MOL1         0.0751
     108    O26     20.443403   14.948687   21.026962 O.3        1 MOL1        -0.3740
     109    C32     22.385008   13.883754   22.115091 C.3        1 MOL1         0.1003
     110    H52     23.235579   13.236470   21.864326 H          1 MOL1         0.0783
     111    O27     21.667564   13.292725   23.208084 O.3        1 MOL1        -0.5519
     112    H53     20.953730   13.931679   23.459363 H          1 MOL1         0.3769
     113    C33     22.948525   15.266887   22.517880 C.3        1 MOL1         0.1053
     114    H54     22.103971   15.901586   22.820831 H          1 MOL1         0.0783
     115    O28     23.850252   15.102404   23.617847 O.3        1 MOL1        -0.5519
     116    H55     23.424668   14.431592   24.199046 H          1 MOL1         0.3769
     117    C34     23.665397   15.957462   21.324743 C.3        1 MOL1         0.1018
     118    H56     24.652821   15.505204   21.161940 H          1 MOL1         0.0783
     119    C35     22.849929   15.876660   20.008186 C.3        1 MOL1         0.1043
     120    H57     22.008255   16.569490   20.097728 H          1 MOL1         0.0783
     121    O29     22.375247   14.522076   19.802859 O.3        1 MOL1        -0.3740
     122    C36     23.678736   16.295849   18.773844 C.3        1 MOL1         0.0138
     123    H58     24.376198   15.487714   18.516207 H          1 MOL1         0.0794
     124    H59     24.276115   17.182270   19.026387 H          1 MOL1         0.0794
     125    O30     22.819632   16.597129   17.668462 O.3        1 MOL1        -0.5486
     126    H60     23.390197   16.814768   16.900851 H          1 MOL1         0.3769
     127    C1      20.071601   18.924888   21.298265 C.3        1 MOL1        -0.2224
     128    H1      20.622632   18.043351   21.652153 H          1 MOL1         0.1052
     129    H2      20.450632   19.800610   21.841494 H          1 MOL1         0.1052
     130    H3      19.013328   18.799334   21.563677 H          1 MOL1         0.1052
     131    C2      20.244690   19.113252   19.776106 C.3        1 MOL1        -0.1209
     132    H4      21.312989   19.217919   19.536438 H          1 MOL1         0.1041
     133    H5      19.755747   20.048872   19.469836 H          1 MOL1         0.1041
     134    C3      19.639990   17.942606   18.972961 C.3        1 MOL1        -0.1274
     135    H6      20.115031   16.998114   19.256329 H          1 MOL1         0.1041
     136    H7      18.580603   17.837990   19.218769 H          1 MOL1         0.1041
     137    C4      19.792850   18.157878   17.455550 C.3        1 MOL1         0.0313
     138    H8      20.844127   18.058365   17.172462 H          1 MOL1         0.1015
     139    H9      19.464426   19.169235   17.201945 H          1 MOL1         0.1015
     140    N1      18.978689   17.196151   16.607492 N.4        1 MOL1        -0.4809
     141    H10     19.056520   17.459624   15.614196 H          1 MOL1         0.3726
     142    H11     17.968262   17.303065   16.831183 H          1 MOL1         0.3726
     143    C5      19.443000   15.757216   16.806482 C.3        1 MOL1        -0.0677
     144    H12     19.279412   15.464452   17.845060 H          1 MOL1         0.1026
     145    H13     18.869518   15.099733   16.149410 H          1 MOL1         0.1026
     146    H14     20.507179   15.687327   16.568385 H          1 MOL1         0.1026
@<TRIPOS>BOND
    1     1     2    1
    2     1     3    1
    3     1     4    1
    4     4     5    1
    5     4     6    1
    6     6     7    1
    7     4     8    1
    8     8     9    1
    9     8    10    1
   10    10    11    1
   11     8    12    1
   12    12    13    1
   13    12    14    1
   14    14    15    1
   15     1    16    1
   16    14    16    1
   17    14    17    1
   18    17    18    1
   19    17    19    1
   20    17    20    1
   21    20    21    1
   22    22    23    1
   23    22    24    1
   24    22    25    1
   25    25    26    1
   26    25    27    1
   27    27    28    1
   28    25    29    1
   29    29    30    1
   30    29    31    1
   31    31    32    1
   32     3    33    1
   33    29    33    1
   34    33    34    1
   35    33    35    1
   36    35    36    1
   37    22    37    1
   38    35    37    1
   39    35    38    1
   40    38    39    1
   41    38    40    1
   42    38    41    1
   43    41    42    1
   44    43    44    1
   45    43    45    1
   46    43    46    1
   47    46    47    1
   48    46    48    1
   49    48    49    1
   50    46    50    1
   51    50    51    1
   52    50    52    1
   53    52    53    1
   54    24    54    1
   55    50    54    1
   56    54    55    1
   57    54    56    1
   58    56    57    1
   59    43    58    1
   60    56    58    1
   61    56    59    1
   62    59    60    1
   63    59    61    1
   64    59    62    1
   65    62    63    1
   66    64    65    1
   67    64    66    1
   68    64    67    1
   69    67    68    1
   70    67    69    1
   71    69    70    1
   72    67    71    1
   73    71    72    1
   74    71    73    1
   75    73    74    1
   76    45    75    1
   77    71    75    1
   78    75    76    1
   79    75    77    1
   80    77    78    1
   81    64    79    1
   82    77    79    1
   83    77    80    1
   84    80    81    1
   85    80    82    1
   86    80    83    1
   87    83    84    1
   88    85    86    1
   89    85    87    1
   90    85    88    1
   91    88    89    1
   92    88    90    1
   93    90    91    1
   94    88    92    1
   95    92    93    1
   96    92    94    1
   97    94    95    1
   98    66    96    1
   99    92    96    1
  100    96    97    1
  101    96    98    1
  102    98    99    1
  103    85   100    1
  104    98   100    1
  105    98   101    1
  106   101   102    1
  107   101   103    1
  108   101   104    1
  109   104   105    1
  110   106   107    1
  111    12   108    1
  112   106   108    1
  113   106   109    1
  114   109   110    1
  115   109   111    1
  116   111   112    1
  117   109   113    1
  118   113   114    1
  119   113   115    1
  120   115   116    1
  121    87   117    1
  122   113   117    1
  123   117   118    1
  124   117   119    1
  125   119   120    1
  126   106   121    1
  127   119   121    1
  128   119   122    1
  129   122   123    1
  130   122   124    1
  131   122   125    1
  132   125   126    1
  133   127   128    1
  134   127   129    1
  135   127   130    1
  136   127   131    1
  137   131   132    1
  138   131   133    1
  139   131   134    1
  140   134   135    1
  141   134   136    1
  142   134   137    1
  143   137   138    1
  144   137   139    1
  145   137   140    1
  146   140   141    1
  147   140   142    1
  148   140   143    1
  149   143   144    1
  150   143   145    1
  151   143   146    1
@<TRIPOS>SUBSTRUCTURE
       1 MOL1            1 RESIDUE      1      MOL     
       2 MOL1          146 RESIDUE      1      MOL     
@<SCITEGIC>MOL_PROPERTY
VM2 Rank
SciTegic.value.IntegerValue
6

@<SCITEGIC>MOL_PROPERTY
Conf_Id
SciTegic.value.IntegerValue
22382

@<SCITEGIC>MOL_PROPERTY
Probability
SciTegic.value.DoubleValue
1.45

@<SCITEGIC>MOL_PROPERTY
Sum Probability
SciTegic.value.DoubleValue
13.10

@<SCITEGIC>MOL_PROPERTY
Delta G
SciTegic.value.DoubleValue
0.483

@<SCITEGIC>MOL_PROPERTY
G
SciTegic.value.DoubleValue
576.579

@<SCITEGIC>MOL_PROPERTY
E
SciTegic.value.DoubleValue
383.864

@<SCITEGIC>MOL_PROPERTY
-TS
SciTegic.value.DoubleValue
192.715

@<SCITEGIC>MOL_PROPERTY
U+W
SciTegic.value.DoubleValue
255.093

@<SCITEGIC>MOL_PROPERTY
U
SciTegic.value.DoubleValue
318.498

@<SCITEGIC>MOL_PROPERTY
W
SciTegic.value.DoubleValue
-63.405

@<SCITEGIC>MOL_PROPERTY
W(PB)
SciTegic.value.DoubleValue
-69.445

@<SCITEGIC>MOL_PROPERTY
W(SA)
SciTegic.value.DoubleValue
6.040

@<SCITEGIC>MOL_PROPERTY
Valence
SciTegic.value.DoubleValue
144.660

@<SCITEGIC>MOL_PROPERTY
Coulomb
SciTegic.value.DoubleValue
194.803

@<SCITEGIC>MOL_PROPERTY
VdW
SciTegic.value.DoubleValue
-20.965

@<SCITEGIC>MOL_PROPERTY
VdW6
SciTegic.value.DoubleValue
-169.114

@<SCITEGIC>MOL_PROPERTY
VdW12
SciTegic.value.DoubleValue
148.149

@<SCITEGIC>MOL_PROPERTY
Bond
SciTegic.value.DoubleValue
4.462

@<SCITEGIC>MOL_PROPERTY
Angle
SciTegic.value.DoubleValue
10.730

@<SCITEGIC>MOL_PROPERTY
Pdih
SciTegic.value.DoubleValue
129.468

@<SCITEGIC>MOL_PROPERTY
Idih
SciTegic.value.DoubleValue
0.000

@<SCITEGIC>MOL_PROPERTY
Tether
SciTegic.value.DoubleValue
0.000

@<TRIPOS>MOLECULE
CD_guest-s9_vm2_rndm.mol2 : vm2 host+ligand conformer 7
         146         151           2
SMALL
USER_CHARGES
 
@<TRIPOS>ATOM
       1    C1      16.333833   15.353663   21.823315 C.3        1 MOL1         0.2972
       2    H1      15.289922   15.201513   22.126359 H          1 MOL1         0.0751
       3    O1      16.511239   16.613048   21.144107 O.3        1 MOL1        -0.3740
       4    C2      17.269147   15.302007   23.060529 C.3        1 MOL1         0.1003
       5    H2      17.148280   14.309532   23.514021 H          1 MOL1         0.0783
       6    O2      16.932399   16.305655   24.031553 O.3        1 MOL1        -0.5519
       7    H3      16.018933   16.619348   23.825130 H          1 MOL1         0.3769
       8    C3      18.747503   15.462249   22.640802 C.3        1 MOL1         0.1053
       9    H4      18.878516   16.484055   22.264467 H          1 MOL1         0.0783
      10    O3      19.580020   15.256319   23.785984 O.3        1 MOL1        -0.5519
      11    H5      19.159653   15.793537   24.495193 H          1 MOL1         0.3769
      12    C4      19.135207   14.477691   21.509834 C.3        1 MOL1         0.1018
      13    H6      19.242126   13.472811   21.938944 H          1 MOL1         0.0783
      14    C5      18.082760   14.446713   20.365906 C.3        1 MOL1         0.1043
      15    H7      18.150934   15.388979   19.807594 H          1 MOL1         0.0783
      16    O4      16.749994   14.306591   20.920060 O.3        1 MOL1        -0.3740
      17    C6      18.300285   13.292555   19.362094 C.3        1 MOL1         0.0138
      18    H8      19.258356   13.441153   18.846699 H          1 MOL1         0.0794
      19    H9      17.510061   13.332500   18.600415 H          1 MOL1         0.0794
      20    O5      18.289935   12.023886   20.022156 O.3        1 MOL1        -0.5486
      21    H10     17.423549   11.958598   20.482177 H          1 MOL1         0.3769
      22    C7      14.656675   20.241203   20.604422 C.3        1 MOL1         0.2972
      23    H11     14.020062   21.102281   20.363292 H          1 MOL1         0.0751
      24    O6      16.020516   20.644843   20.860498 O.3        1 MOL1        -0.3740
      25    C8      14.097288   19.445526   21.814060 C.3        1 MOL1         0.1003
      26    H12     13.120540   19.047881   21.508770 H          1 MOL1         0.0783
      27    O7      13.913326   20.272206   22.972290 O.3        1 MOL1        -0.5519
      28    H13     14.815459   20.556338   23.266071 H          1 MOL1         0.3769
      29    C9      15.014629   18.243594   22.146847 C.3        1 MOL1         0.1053
      30    H14     15.968009   18.639266   22.524016 H          1 MOL1         0.0783
      31    O8      14.384682   17.448459   23.157523 O.3        1 MOL1        -0.5519
      32    H15     13.985781   18.097589   23.780938 H          1 MOL1         0.3769
      33    C10     15.317489   17.381776   20.888431 C.3        1 MOL1         0.1018
      34    H16     14.459967   16.732103   20.667556 H          1 MOL1         0.0783
      35    C11     15.633425   18.231382   19.628944 C.3        1 MOL1         0.1043
      36    H17     16.640487   18.645127   19.739228 H          1 MOL1         0.0783
      37    O9      14.681298   19.315170   19.496751 O.3        1 MOL1        -0.3740
      38    C12     15.597179   17.383726   18.339118 C.3        1 MOL1         0.0138
      39    H18     14.556806   17.119201   18.106887 H          1 MOL1         0.0794
      40    H19     16.147750   16.448293   18.507121 H          1 MOL1         0.0794
      41    O10     16.190740   18.104052   17.256682 O.3        1 MOL1        -0.5486
      42    H20     15.687386   18.945601   17.180023 H          1 MOL1         0.3769
      43    C13     18.477666   23.774633   21.977814 C.3        1 MOL1         0.2972
      44    H21     18.909028   24.718210   22.335317 H          1 MOL1         0.0751
      45    O11     19.458640   22.964001   21.298438 O.3        1 MOL1        -0.3740
      46    C14     17.888927   22.965846   23.162573 C.3        1 MOL1         0.1003
      47    H22     17.106344   23.585671   23.619341 H          1 MOL1         0.0783
      48    O12     18.886991   22.663659   24.151004 O.3        1 MOL1        -0.5519
      49    H23     19.633877   23.294839   24.012890 H          1 MOL1         0.3769
      50    C15     17.237687   21.656676   22.662478 C.3        1 MOL1         0.1053
      51    H24     18.037682   21.008257   22.281815 H          1 MOL1         0.0783
      52    O13     16.582190   21.019840   23.762822 O.3        1 MOL1        -0.5519
      53    H25     17.241600   21.051350   24.492660 H          1 MOL1         0.3769
      54    C16     16.234768   21.913540   21.508173 C.3        1 MOL1         0.1018
      55    H26     15.306920   22.326361   21.925544 H          1 MOL1         0.0783
      56    C17     16.805499   22.876250   20.428791 C.3        1 MOL1         0.1043
      57    H27     17.572377   22.336507   19.857337 H          1 MOL1         0.0783
      58    O14     17.399101   24.040507   21.055839 O.3        1 MOL1        -0.3740
      59    C18     15.739380   23.370497   19.425825 C.3        1 MOL1         0.0138
      60    H28     15.358243   22.511825   18.857284 H          1 MOL1         0.0794
      61    H29     16.217484   24.050720   18.708287 H          1 MOL1         0.0794
      62    O15     14.663996   24.032931   20.097453 O.3        1 MOL1        -0.5486
      63    H30     15.068888   24.771119   20.605206 H          1 MOL1         0.3769
      64    C19     23.582931   22.732451   20.906164 C.3        1 MOL1         0.2972
      65    H31     24.646755   22.895660   20.690740 H          1 MOL1         0.0751
      66    O16     23.304972   21.341407   21.169794 O.3        1 MOL1        -0.3740
      67    C20     23.110844   23.605795   22.100088 C.3        1 MOL1         0.1003
      68    H32     23.248896   24.653117   21.801124 H          1 MOL1         0.0783
      69    O17     23.878356   23.363751   23.288531 O.3        1 MOL1        -0.5519
      70    H33     23.702632   22.427193   23.559111 H          1 MOL1         0.3769
      71    C21     21.603427   23.389474   22.379292 C.3        1 MOL1         0.1053
      72    H34     21.468937   22.360417   22.741361 H          1 MOL1         0.0783
      73    O18     21.189695   24.318544   23.387577 O.3        1 MOL1        -0.5519
      74    H35     21.936439   24.346705   24.028700 H          1 MOL1         0.3769
      75    C22     20.754444   23.561329   21.086838 C.3        1 MOL1         0.1018
      76    H36     20.666955   24.626971   20.836183 H          1 MOL1         0.0783
      77    C23     21.369818   22.812675   19.876008 C.3        1 MOL1         0.1043
      78    H37     21.228996   21.737281   20.029147 H          1 MOL1         0.0783
      79    O19     22.782116   23.120350   19.769984 O.3        1 MOL1        -0.3740
      80    C24     20.696498   23.195885   18.542493 C.3        1 MOL1         0.0138
      81    H38     20.945658   24.236193   18.293818 H          1 MOL1         0.0794
      82    H39     19.606063   23.130806   18.654210 H          1 MOL1         0.0794
      83    O20     21.130176   22.309294   17.508997 O.3        1 MOL1        -0.5486
      84    H40     22.112379   22.344272   17.511009 H          1 MOL1         0.3769
      85    C25     24.920772   17.710446   22.212787 C.3        1 MOL1         0.2972
      86    H41     25.518149   16.852685   22.547661 H          1 MOL1         0.0751
      87    O21     23.753138   17.297127   21.476207 O.3        1 MOL1        -0.3740
      88    C26     24.470019   18.569280   23.421991 C.3        1 MOL1         0.1003
      89    H42     25.377966   18.955515   23.903343 H          1 MOL1         0.0783
      90    O22     23.721917   17.799006   24.376469 O.3        1 MOL1        -0.5519
      91    H43     23.816935   16.848302   24.125129 H          1 MOL1         0.3769
      92    C27     23.626193   19.772685   22.944775 C.3        1 MOL1         0.1053
      93    H44     22.684926   19.378993   22.540638 H          1 MOL1         0.0783
      94    O23     23.350854   20.622812   24.062027 O.3        1 MOL1        -0.5519
      95    H45     23.063270   20.007747   24.774277 H          1 MOL1         0.3769
      96    C28     24.334753   20.573232   21.821845 C.3        1 MOL1         0.1018
      97    H46     25.103610   21.212854   22.274846 H          1 MOL1         0.0783
      98    C29     24.977024   19.662307   20.735427 C.3        1 MOL1         0.1043
      99    H47     24.171928   19.260109   20.106025 H          1 MOL1         0.0783
     100    O24     25.701491   18.567375   21.352789 O.3        1 MOL1        -0.3740
     101    C30     25.956518   20.412575   19.805790 C.3        1 MOL1         0.0138
     102    H48     25.400245   21.166916   19.233872 H          1 MOL1         0.0794
     103    H49     26.374359   19.698844   19.083179 H          1 MOL1         0.0794
     104    O25     27.006091   21.034830   20.552231 O.3        1 MOL1        -0.5486
     105    H50     27.449974   20.316646   21.056057 H          1 MOL1         0.3769
     106    C31     21.415718   13.984814   20.730822 C.3        1 MOL1         0.2972
     107    H51     20.997079   13.013504   20.437573 H          1 MOL1         0.0751
     108    O26     20.373190   14.960691   20.948835 O.3        1 MOL1        -0.3740
     109    C32     22.307350   13.848729   21.995439 C.3        1 MOL1         0.1003
     110    H52     23.132005   13.173994   21.730961 H          1 MOL1         0.0783
     111    O27     21.595621   13.288455   23.108687 O.3        1 MOL1        -0.5519
     112    H53     20.898010   13.944937   23.360657 H          1 MOL1         0.3769
     113    C33     22.921356   15.214133   22.385078 C.3        1 MOL1         0.1053
     114    H54     22.103525   15.869992   22.715344 H          1 MOL1         0.0783
     115    O28     23.848836   15.015538   23.457661 O.3        1 MOL1        -0.5519
     116    H55     23.420218   14.352249   24.045496 H          1 MOL1         0.3769
     117    C34     23.625029   15.894120   21.178255 C.3        1 MOL1         0.1018
     118    H56     24.601567   15.426086   20.995716 H          1 MOL1         0.0783
     119    C35     22.782639   15.829029   19.878110 C.3        1 MOL1         0.1043
     120    H57     21.961313   16.543320   19.982573 H          1 MOL1         0.0783
     121    O29     22.268612   14.487546   19.682785 O.3        1 MOL1        -0.3740
     122    C36     23.599592   16.225603   18.628663 C.3        1 MOL1         0.0138
     123    H58     24.257763   15.392187   18.348934 H          1 MOL1         0.0794
     124    H59     24.237749   17.084655   18.875636 H          1 MOL1         0.0794
     125    O30     22.729599   16.572023   17.545446 O.3        1 MOL1        -0.5486
     126    H60     23.289754   16.753315   16.760899 H          1 MOL1         0.3769
     127    C1      20.035012   18.952633   21.343604 C.3        1 MOL1        -0.2224
     128    H1      18.979608   18.818088   21.615682 H          1 MOL1         0.1052
     129    H2      20.592170   18.065075   21.672311 H          1 MOL1         0.1052
     130    H3      20.416577   19.817285   21.902798 H          1 MOL1         0.1052
     131    C2      20.193602   19.175355   19.824936 C.3        1 MOL1        -0.1209
     132    H4      21.259479   19.290363   19.579663 H          1 MOL1         0.1041
     133    H5      19.696871   20.114777   19.543898 H          1 MOL1         0.1041
     134    C3      19.588647   18.019997   19.000708 C.3        1 MOL1        -0.1274
     135    H6      20.059435   17.070290   19.271000 H          1 MOL1         0.1041
     136    H7      18.529048   17.912685   19.242519 H          1 MOL1         0.1041
     137    C4      19.747257   18.261072   17.487594 C.3        1 MOL1         0.0313
     138    H8      20.800351   18.171250   17.207656 H          1 MOL1         0.1015
     139    H9      19.415052   19.274887   17.249152 H          1 MOL1         0.1015
     140    N1      18.942489   17.309284   16.619783 N.4        1 MOL1        -0.4809
     141    H10     19.019195   17.594158   15.632181 H          1 MOL1         0.3726
     142    H11     17.930700   17.403507   16.842726 H          1 MOL1         0.3726
     143    C5      19.423903   15.872380   16.788904 C.3        1 MOL1        -0.0677
     144    H12     20.484254   15.818482   16.530151 H          1 MOL1         0.1026
     145    H13     19.286328   15.565033   17.826723 H          1 MOL1         0.1026
     146    H14     18.847211   15.220307   16.129533 H          1 MOL1         0.1026
@<TRIPOS>BOND
    1     1     2    1
    2     1     3    1
    3     1     4    1
    4     4     5    1
    5     4     6    1
    6     6     7    1
    7     4     8    1
    8     8     9    1
    9     8    10    1
   10    10    11    1
   11     8    12    1
   12    12    13    1
   13    12    14    1
   14    14    15    1
   15     1    16    1
   16    14    16    1
   17    14    17    1
   18    17    18    1
   19    17    19    1
   20    17    20    1
   21    20    21    1
   22    22    23    1
   23    22    24    1
   24    22    25    1
   25    25    26    1
   26    25    27    1
   27    27    28    1
   28    25    29    1
   29    29    30    1
   30    29    31    1
   31    31    32    1
   32     3    33    1
   33    29    33    1
   34    33    34    1
   35    33    35    1
   36    35    36    1
   37    22    37    1
   38    35    37    1
   39    35    38    1
   40    38    39    1
   41    38    40    1
   42    38    41    1
   43    41    42    1
   44    43    44    1
   45    43    45    1
   46    43    46    1
   47    46    47    1
   48    46    48    1
   49    48    49    1
   50    46    50    1
   51    50    51    1
   52    50    52    1
   53    52    53    1
   54    24    54    1
   55    50    54    1
   56    54    55    1
   57    54    56    1
   58    56    57    1
   59    43    58    1
   60    56    58    1
   61    56    59    1
   62    59    60    1
   63    59    61    1
   64    59    62    1
   65    62    63    1
   66    64    65    1
   67    64    66    1
   68    64    67    1
   69    67    68    1
   70    67    69    1
   71    69    70    1
   72    67    71    1
   73    71    72    1
   74    71    73    1
   75    73    74    1
   76    45    75    1
   77    71    75    1
   78    75    76    1
   79    75    77    1
   80    77    78    1
   81    64    79    1
   82    77    79    1
   83    77    80    1
   84    80    81    1
   85    80    82    1
   86    80    83    1
   87    83    84    1
   88    85    86    1
   89    85    87    1
   90    85    88    1
   91    88    89    1
   92    88    90    1
   93    90    91    1
   94    88    92    1
   95    92    93    1
   96    92    94    1
   97    94    95    1
   98    66    96    1
   99    92    96    1
  100    96    97    1
  101    96    98    1
  102    98    99    1
  103    85   100    1
  104    98   100    1
  105    98   101    1
  106   101   102    1
  107   101   103    1
  108   101   104    1
  109   104   105    1
  110   106   107    1
  111    12   108    1
  112   106   108    1
  113   106   109    1
  114   109   110    1
  115   109   111    1
  116   111   112    1
  117   109   113    1
  118   113   114    1
  119   113   115    1
  120   115   116    1
  121    87   117    1
  122   113   117    1
  123   117   118    1
  124   117   119    1
  125   119   120    1
  126   106   121    1
  127   119   121    1
  128   119   122    1
  129   122   123    1
  130   122   124    1
  131   122   125    1
  132   125   126    1
  133   127   128    1
  134   127   129    1
  135   127   130    1
  136   127   131    1
  137   131   132    1
  138   131   133    1
  139   131   134    1
  140   134   135    1
  141   134   136    1
  142   134   137    1
  143   137   138    1
  144   137   139    1
  145   137   140    1
  146   140   141    1
  147   140   142    1
  148   140   143    1
  149   143   144    1
  150   143   145    1
  151   143   146    1
@<TRIPOS>SUBSTRUCTURE
       1 MOL1            1 RESIDUE      1      MOL     
       2 MOL1          146 RESIDUE      1      MOL     
@<SCITEGIC>MOL_PROPERTY
VM2 Rank
SciTegic.value.IntegerValue
7

@<SCITEGIC>MOL_PROPERTY
Conf_Id
SciTegic.value.IntegerValue
24767

@<SCITEGIC>MOL_PROPERTY
Probability
SciTegic.value.DoubleValue
1.41

@<SCITEGIC>MOL_PROPERTY
Sum Probability
SciTegic.value.DoubleValue
14.51

@<SCITEGIC>MOL_PROPERTY
Delta G
SciTegic.value.DoubleValue
0.499

@<SCITEGIC>MOL_PROPERTY
G
SciTegic.value.DoubleValue
576.594

@<SCITEGIC>MOL_PROPERTY
E
SciTegic.value.DoubleValue
383.812

@<SCITEGIC>MOL_PROPERTY
-TS
SciTegic.value.DoubleValue
192.782

@<SCITEGIC>MOL_PROPERTY
U+W
SciTegic.value.DoubleValue
255.041

@<SCITEGIC>MOL_PROPERTY
U
SciTegic.value.DoubleValue
321.739

@<SCITEGIC>MOL_PROPERTY
W
SciTegic.value.DoubleValue
-66.698

@<SCITEGIC>MOL_PROPERTY
W(PB)
SciTegic.value.DoubleValue
-72.738

@<SCITEGIC>MOL_PROPERTY
W(SA)
SciTegic.value.DoubleValue
6.040

@<SCITEGIC>MOL_PROPERTY
Valence
SciTegic.value.DoubleValue
143.668

@<SCITEGIC>MOL_PROPERTY
Coulomb
SciTegic.value.DoubleValue
198.285

@<SCITEGIC>MOL_PROPERTY
VdW
SciTegic.value.DoubleValue
-20.214

@<SCITEGIC>MOL_PROPERTY
VdW6
SciTegic.value.DoubleValue
-169.633

@<SCITEGIC>MOL_PROPERTY
VdW12
SciTegic.value.DoubleValue
149.420

@<SCITEGIC>MOL_PROPERTY
Bond
SciTegic.value.DoubleValue
4.542

@<SCITEGIC>MOL_PROPERTY
Angle
SciTegic.value.DoubleValue
10.848

@<SCITEGIC>MOL_PROPERTY
Pdih
SciTegic.value.DoubleValue
128.277

@<SCITEGIC>MOL_PROPERTY
Idih
SciTegic.value.DoubleValue
0.000

@<SCITEGIC>MOL_PROPERTY
Tether
SciTegic.value.DoubleValue
0.000

@<TRIPOS>MOLECULE
CD_guest-s9_vm2_rndm.mol2 : vm2 host+ligand conformer 8
         146         151           2
SMALL
USER_CHARGES
 
@<TRIPOS>ATOM
       1    C1      16.386712   15.330807   21.936274 C.3        1 MOL1         0.2972
       2    H1      15.346455   15.189397   22.256491 H          1 MOL1         0.0751
       3    O1      16.568922   16.587439   21.254453 O.3        1 MOL1        -0.3740
       4    C2      17.339344   15.274757   23.156718 C.3        1 MOL1         0.1003
       5    H2      17.212164   14.287604   23.619957 H          1 MOL1         0.0783
       6    O2      17.027671   16.291747   24.122821 O.3        1 MOL1        -0.5519
       7    H3      16.122706   16.627452   23.912830 H          1 MOL1         0.3769
       8    C3      18.812271   15.411493   22.709202 C.3        1 MOL1         0.1053
       9    H4      18.951696   16.433159   22.333710 H          1 MOL1         0.0783
      10    O3      19.656257   15.194679   23.843165 O.3        1 MOL1        -0.5519
      11    H5      19.254787   15.741188   24.556364 H          1 MOL1         0.3769
      12    C4      19.169688   14.424920   21.565143 C.3        1 MOL1         0.1018
      13    H6      19.271631   13.413525   21.980313 H          1 MOL1         0.0783
      14    C5      18.096270   14.416732   20.439228 C.3        1 MOL1         0.1043
      15    H7      18.163547   15.360143   19.882933 H          1 MOL1         0.0783
      16    O4      16.782019   14.276842   21.035695 O.3        1 MOL1        -0.3740
      17    C6      18.285238   13.257571   19.435839 C.3        1 MOL1         0.0138
      18    H8      18.036362   12.308425   19.929220 H          1 MOL1         0.0794
      19    H9      19.338082   13.211657   19.130561 H          1 MOL1         0.0794
      20    O5      17.468053   13.457411   18.277865 O.3        1 MOL1        -0.5486
      21    H10     17.558518   12.664262   17.706899 H          1 MOL1         0.3769
      22    C7      14.678470   20.180938   20.626732 C.3        1 MOL1         0.2972
      23    H11     14.030693   21.027608   20.365218 H          1 MOL1         0.0751
      24    O6      16.035592   20.608511   20.877367 O.3        1 MOL1        -0.3740
      25    C8      14.127135   19.404116   21.852463 C.3        1 MOL1         0.1003
      26    H12     13.157733   18.983947   21.554066 H          1 MOL1         0.0783
      27    O7      13.927363   20.253470   22.991534 O.3        1 MOL1        -0.5519
      28    H13     14.824064   20.558574   23.280775 H          1 MOL1         0.3769
      29    C9      15.063967   18.225671   22.212272 C.3        1 MOL1         0.1053
      30    H14     16.013398   18.645491   22.572912 H          1 MOL1         0.0783
      31    O8      14.455822   17.446058   23.248144 O.3        1 MOL1        -0.5519
      32    H15     14.051775   18.103884   23.858846 H          1 MOL1         0.3769
      33    C10     15.372548   17.338982   20.973138 C.3        1 MOL1         0.1018
      34    H16     14.520153   16.678414   20.764914 H          1 MOL1         0.0783
      35    C11     15.686254   18.162784   19.696311 C.3        1 MOL1         0.1043
      36    H17     16.690441   18.587363   19.800481 H          1 MOL1         0.0783
      37    O9      14.721072   19.232450   19.538836 O.3        1 MOL1        -0.3740
      38    C12     15.659756   17.289256   18.423123 C.3        1 MOL1         0.0138
      39    H18     14.627345   16.974861   18.219679 H          1 MOL1         0.0794
      40    H19     16.255059   16.381231   18.593263 H          1 MOL1         0.0794
      41    O10     16.193195   18.019326   17.315540 O.3        1 MOL1        -0.5486
      42    H20     15.661634   18.844569   17.253186 H          1 MOL1         0.3769
      43    C13     18.458569   23.781222   21.923939 C.3        1 MOL1         0.2972
      44    H21     18.888568   24.734449   22.256603 H          1 MOL1         0.0751
      45    O11     19.439393   22.954063   21.264901 O.3        1 MOL1        -0.3740
      46    C14     17.872291   23.001025   23.128586 C.3        1 MOL1         0.1003
      47    H22     17.083370   23.626876   23.565834 H          1 MOL1         0.0783
      48    O12     18.869312   22.733732   24.128071 O.3        1 MOL1        -0.5519
      49    H23     19.616902   23.358856   23.967812 H          1 MOL1         0.3769
      50    C15     17.232882   21.674075   22.660841 C.3        1 MOL1         0.1053
      51    H24     18.038917   21.021263   22.299629 H          1 MOL1         0.0783
      52    O13     16.579002   21.061305   23.775741 O.3        1 MOL1        -0.5519
      53    H25     17.236217   21.116845   24.506157 H          1 MOL1         0.3769
      54    C16     16.230805   21.893577   21.497640 C.3        1 MOL1         0.1018
      55    H26     15.296279   22.303134   21.903156 H          1 MOL1         0.0783
      56    C17     16.790945   22.838786   20.397149 C.3        1 MOL1         0.1043
      57    H27     17.560049   22.293031   19.834465 H          1 MOL1         0.0783
      58    O14     17.377975   24.020454   20.997268 O.3        1 MOL1        -0.3740
      59    C18     15.718297   23.303705   19.387160 C.3        1 MOL1         0.0138
      60    H28     15.341885   22.430367   18.838162 H          1 MOL1         0.0794
      61    H29     16.189309   23.971962   18.653859 H          1 MOL1         0.0794
      62    O15     14.640048   23.972482   20.047807 O.3        1 MOL1        -0.5486
      63    H30     15.041026   24.724102   20.538690 H          1 MOL1         0.3769
      64    C19     23.563871   22.716962   20.873437 C.3        1 MOL1         0.2972
      65    H31     24.626591   22.878073   20.651190 H          1 MOL1         0.0751
      66    O16     23.291280   21.333624   21.176821 O.3        1 MOL1        -0.3740
      67    C20     23.091702   23.619724   22.045162 C.3        1 MOL1         0.1003
      68    H32     23.229527   24.659396   21.720523 H          1 MOL1         0.0783
      69    O17     23.859300   23.406047   23.239158 O.3        1 MOL1        -0.5519
      70    H33     23.688827   22.474253   23.529014 H          1 MOL1         0.3769
      71    C21     21.584672   23.409843   22.330964 C.3        1 MOL1         0.1053
      72    H34     21.451591   22.391057   22.721601 H          1 MOL1         0.0783
      73    O18     21.170905   24.366058   23.313515 O.3        1 MOL1        -0.5519
      74    H35     21.917867   24.412050   23.953373 H          1 MOL1         0.3769
      75    C22     20.734577   23.544527   21.034876 C.3        1 MOL1         0.1018
      76    H36     20.647258   24.602257   20.752672 H          1 MOL1         0.0783
      77    C23     21.348069   22.758844   19.846892 C.3        1 MOL1         0.1043
      78    H37     21.209318   21.687918   20.034200 H          1 MOL1         0.0783
      79    O19     22.759000   23.068319   19.728426 O.3        1 MOL1        -0.3740
      80    C24     20.671674   23.098512   18.503113 C.3        1 MOL1         0.0138
      81    H38     20.915974   24.131871   18.222687 H          1 MOL1         0.0794
      82    H39     19.581687   23.032055   18.617907 H          1 MOL1         0.0794
      83    O20     21.108400   22.182880   17.496466 O.3        1 MOL1        -0.5486
      84    H40     22.090279   22.224754   17.494384 H          1 MOL1         0.3769
      85    C25     24.919802   17.731043   22.268921 C.3        1 MOL1         0.2972
      86    H41     25.517900   16.877957   22.614335 H          1 MOL1         0.0751
      87    O21     23.748789   17.307458   21.542889 O.3        1 MOL1        -0.3740
      88    C26     24.473833   18.605450   23.468136 C.3        1 MOL1         0.1003
      89    H42     25.383383   18.997531   23.941667 H          1 MOL1         0.0783
      90    O22     23.729021   17.845685   24.433665 O.3        1 MOL1        -0.5519
      91    H43     23.811584   16.893228   24.184079 H          1 MOL1         0.3769
      92    C27     23.628637   19.802639   22.978101 C.3        1 MOL1         0.1053
      93    H44     22.683603   19.403639   22.587884 H          1 MOL1         0.0783
      94    O23     23.362574   20.672362   24.082586 O.3        1 MOL1        -0.5519
      95    H45     23.075262   20.071025   24.806481 H          1 MOL1         0.3769
      96    C28     24.329290   20.585123   21.837485 C.3        1 MOL1         0.1018
      97    H46     25.095584   21.238057   22.275624 H          1 MOL1         0.0783
      98    C29     24.972272   19.660129   20.763531 C.3        1 MOL1         0.1043
      99    H47     24.166868   19.248475   20.141062 H          1 MOL1         0.0783
     100    O24     25.698441   18.574889   21.394821 O.3        1 MOL1        -0.3740
     101    C30     25.949711   20.397729   19.821636 C.3        1 MOL1         0.0138
     102    H48     25.391599   21.141205   19.237466 H          1 MOL1         0.0794
     103    H49     26.369202   19.673394   19.110602 H          1 MOL1         0.0794
     104    O25     26.997915   21.034565   20.557565 O.3        1 MOL1        -0.5486
     105    H50     27.444632   20.325632   21.071873 H          1 MOL1         0.3769
     106    C31     21.471874   13.947527   20.792194 C.3        1 MOL1         0.2972
     107    H51     21.081733   12.964283   20.502248 H          1 MOL1         0.0751
     108    O26     20.403108   14.901442   20.985660 O.3        1 MOL1        -0.3740
     109    C32     22.358854   13.836183   22.062163 C.3        1 MOL1         0.1003
     110    H52     23.203361   13.185051   21.800995 H          1 MOL1         0.0783
     111    O27     21.656704   13.249007   23.166792 O.3        1 MOL1        -0.5519
     112    H53     20.955024   13.895066   23.433303 H          1 MOL1         0.3769
     113    C33     22.935739   15.217223   22.454332 C.3        1 MOL1         0.1053
     114    H54     22.100327   15.856902   22.771493 H          1 MOL1         0.0783
     115    O28     23.856230   15.046039   23.537434 O.3        1 MOL1        -0.5519
     116    H55     23.436969   14.377535   24.125923 H          1 MOL1         0.3769
     117    C34     23.636822   15.902984   21.249348 C.3        1 MOL1         0.1018
     118    H56     24.619356   15.445270   21.072596 H          1 MOL1         0.0783
     119    C35     22.799628   15.818446   19.947606 C.3        1 MOL1         0.1043
     120    H57     21.959654   16.513223   20.045216 H          1 MOL1         0.0783
     121    O29     22.319418   14.465174   19.746734 O.3        1 MOL1        -0.3740
     122    C36     23.606731   16.223739   18.698004 C.3        1 MOL1         0.0138
     123    H58     24.417282   15.500406   18.537249 H          1 MOL1         0.0794
     124    H59     24.064051   17.207887   18.864153 H          1 MOL1         0.0794
     125    O30     22.742020   16.273437   17.561597 O.3        1 MOL1        -0.5486
     126    H60     22.313043   15.391583   17.513716 H          1 MOL1         0.3769
     127    C1      20.093532   18.893217   21.184506 C.3        1 MOL1        -0.2224
     128    H1      20.609566   17.999838   21.560340 H          1 MOL1         0.1052
     129    H2      20.503866   19.765858   21.709565 H          1 MOL1         0.1052
     130    H3      19.030590   18.813903   21.449427 H          1 MOL1         0.1052
     131    C2      20.277956   19.040980   19.658974 C.3        1 MOL1        -0.1209
     132    H4      21.349953   19.091923   19.419313 H          1 MOL1         0.1041
     133    H5      19.833757   19.991800   19.332189 H          1 MOL1         0.1041
     134    C3      19.617269   17.884712   18.878871 C.3        1 MOL1        -0.1274
     135    H6      20.043246   16.922444   19.181207 H          1 MOL1         0.1041
     136    H7      18.553782   17.840581   19.126955 H          1 MOL1         0.1041
     137    C4      19.774840   18.065367   17.357217 C.3        1 MOL1         0.0313
     138    H8      20.814017   17.888381   17.066257 H          1 MOL1         0.1015
     139    H9      19.515889   19.093731   17.091739 H          1 MOL1         0.1015
     140    N1      18.883440   17.153953   16.531582 N.4        1 MOL1        -0.4809
     141    H10     18.944542   17.415567   15.536543 H          1 MOL1         0.3726
     142    H11     17.887431   17.313992   16.787220 H          1 MOL1         0.3726
     143    C5      19.267834   15.690705   16.713700 C.3        1 MOL1        -0.0677
     144    H12     19.143334   15.411033   17.761718 H          1 MOL1         0.1026
     145    H13     18.617572   15.069984   16.093435 H          1 MOL1         0.1026
     146    H14     20.308435   15.553964   16.412765 H          1 MOL1         0.1026
@<TRIPOS>BOND
    1     1     2    1
    2     1     3    1
    3     1     4    1
    4     4     5    1
    5     4     6    1
    6     6     7    1
    7     4     8    1
    8     8     9    1
    9     8    10    1
   10    10    11    1
   11     8    12    1
   12    12    13    1
   13    12    14    1
   14    14    15    1
   15     1    16    1
   16    14    16    1
   17    14    17    1
   18    17    18    1
   19    17    19    1
   20    17    20    1
   21    20    21    1
   22    22    23    1
   23    22    24    1
   24    22    25    1
   25    25    26    1
   26    25    27    1
   27    27    28    1
   28    25    29    1
   29    29    30    1
   30    29    31    1
   31    31    32    1
   32     3    33    1
   33    29    33    1
   34    33    34    1
   35    33    35    1
   36    35    36    1
   37    22    37    1
   38    35    37    1
   39    35    38    1
   40    38    39    1
   41    38    40    1
   42    38    41    1
   43    41    42    1
   44    43    44    1
   45    43    45    1
   46    43    46    1
   47    46    47    1
   48    46    48    1
   49    48    49    1
   50    46    50    1
   51    50    51    1
   52    50    52    1
   53    52    53    1
   54    24    54    1
   55    50    54    1
   56    54    55    1
   57    54    56    1
   58    56    57    1
   59    43    58    1
   60    56    58    1
   61    56    59    1
   62    59    60    1
   63    59    61    1
   64    59    62    1
   65    62    63    1
   66    64    65    1
   67    64    66    1
   68    64    67    1
   69    67    68    1
   70    67    69    1
   71    69    70    1
   72    67    71    1
   73    71    72    1
   74    71    73    1
   75    73    74    1
   76    45    75    1
   77    71    75    1
   78    75    76    1
   79    75    77    1
   80    77    78    1
   81    64    79    1
   82    77    79    1
   83    77    80    1
   84    80    81    1
   85    80    82    1
   86    80    83    1
   87    83    84    1
   88    85    86    1
   89    85    87    1
   90    85    88    1
   91    88    89    1
   92    88    90    1
   93    90    91    1
   94    88    92    1
   95    92    93    1
   96    92    94    1
   97    94    95    1
   98    66    96    1
   99    92    96    1
  100    96    97    1
  101    96    98    1
  102    98    99    1
  103    85   100    1
  104    98   100    1
  105    98   101    1
  106   101   102    1
  107   101   103    1
  108   101   104    1
  109   104   105    1
  110   106   107    1
  111    12   108    1
  112   106   108    1
  113   106   109    1
  114   109   110    1
  115   109   111    1
  116   111   112    1
  117   109   113    1
  118   113   114    1
  119   113   115    1
  120   115   116    1
  121    87   117    1
  122   113   117    1
  123   117   118    1
  124   117   119    1
  125   119   120    1
  126   106   121    1
  127   119   121    1
  128   119   122    1
  129   122   123    1
  130   122   124    1
  131   122   125    1
  132   125   126    1
  133   127   128    1
  134   127   129    1
  135   127   130    1
  136   127   131    1
  137   131   132    1
  138   131   133    1
  139   131   134    1
  140   134   135    1
  141   134   136    1
  142   134   137    1
  143   137   138    1
  144   137   139    1
  145   137   140    1
  146   140   141    1
  147   140   142    1
  148   140   143    1
  149   143   144    1
  150   143   145    1
  151   143   146    1
@<TRIPOS>SUBSTRUCTURE
       1 MOL1            1 RESIDUE      1      MOL     
       2 MOL1          146 RESIDUE      1      MOL     
@<SCITEGIC>MOL_PROPERTY
VM2 Rank
SciTegic.value.IntegerValue
8

@<SCITEGIC>MOL_PROPERTY
Conf_Id
SciTegic.value.IntegerValue
24983

@<SCITEGIC>MOL_PROPERTY
Probability
SciTegic.value.DoubleValue
1.32

@<SCITEGIC>MOL_PROPERTY
Sum Probability
SciTegic.value.DoubleValue
15.83

@<SCITEGIC>MOL_PROPERTY
Delta G
SciTegic.value.DoubleValue
0.542

@<SCITEGIC>MOL_PROPERTY
G
SciTegic.value.DoubleValue
576.637

@<SCITEGIC>MOL_PROPERTY
E
SciTegic.value.DoubleValue
383.704

@<SCITEGIC>MOL_PROPERTY
-TS
SciTegic.value.DoubleValue
192.933

@<SCITEGIC>MOL_PROPERTY
U+W
SciTegic.value.DoubleValue
254.933

@<SCITEGIC>MOL_PROPERTY
U
SciTegic.value.DoubleValue
321.045

@<SCITEGIC>MOL_PROPERTY
W
SciTegic.value.DoubleValue
-66.112

@<SCITEGIC>MOL_PROPERTY
W(PB)
SciTegic.value.DoubleValue
-72.152

@<SCITEGIC>MOL_PROPERTY
W(SA)
SciTegic.value.DoubleValue
6.039

@<SCITEGIC>MOL_PROPERTY
Valence
SciTegic.value.DoubleValue
144.104

@<SCITEGIC>MOL_PROPERTY
Coulomb
SciTegic.value.DoubleValue
197.403

@<SCITEGIC>MOL_PROPERTY
VdW
SciTegic.value.DoubleValue
-20.462

@<SCITEGIC>MOL_PROPERTY
VdW6
SciTegic.value.DoubleValue
-169.035

@<SCITEGIC>MOL_PROPERTY
VdW12
SciTegic.value.DoubleValue
148.573

@<SCITEGIC>MOL_PROPERTY
Bond
SciTegic.value.DoubleValue
4.480

@<SCITEGIC>MOL_PROPERTY
Angle
SciTegic.value.DoubleValue
10.827

@<SCITEGIC>MOL_PROPERTY
Pdih
SciTegic.value.DoubleValue
128.796

@<SCITEGIC>MOL_PROPERTY
Idih
SciTegic.value.DoubleValue
0.000

@<SCITEGIC>MOL_PROPERTY
Tether
SciTegic.value.DoubleValue
0.000

