@<TRIPOS>MOLECULE
CD_guest-s14_vm2_rndm.mol2 : vm2 host+ligand conformer 1
         152         157           2
SMALL
USER_CHARGES
 
@<TRIPOS>ATOM
       1    C1      16.243479   15.297925   21.747800 C.3        1 MOL1         0.2972
       2    H1      15.183853   15.131931   21.981302 H          1 MOL1         0.0751
       3    O1      16.462427   16.595173   21.157901 O.3        1 MOL1        -0.3740
       4    C2      17.105857   15.166540   23.030677 C.3        1 MOL1         0.1003
       5    H2      16.970788   14.144603   23.408324 H          1 MOL1         0.0783
       6    O2      16.703877   16.099955   24.046072 O.3        1 MOL1        -0.5519
       7    H3      15.851281   16.504430   23.753484 H          1 MOL1         0.3769
       8    C3      18.602500   15.365911   22.706306 C.3        1 MOL1         0.1053
       9    H4      18.734983   16.413188   22.413745 H          1 MOL1         0.0783
      10    O3      19.374381   15.094037   23.879528 O.3        1 MOL1        -0.5519
      11    H5      18.895341   15.560961   24.601061 H          1 MOL1         0.3769
      12    C4      19.064871   14.465010   21.532118 C.3        1 MOL1         0.1018
      13    H6      19.173617   13.436660   21.901450 H          1 MOL1         0.0783
      14    C5      18.072850   14.491317   20.334420 C.3        1 MOL1         0.1043
      15    H7      18.161756   15.465334   19.835141 H          1 MOL1         0.0783
      16    O4      16.713969   14.308232   20.807861 O.3        1 MOL1        -0.3740
      17    C6      18.355167   13.402065   19.275906 C.3        1 MOL1         0.0138
      18    H8      19.331929   13.596935   18.813656 H          1 MOL1         0.0794
      19    H9      17.599093   13.475766   18.482752 H          1 MOL1         0.0794
      20    O5      18.337628   12.095993   19.858859 O.3        1 MOL1        -0.5486
      21    H10     17.451591   11.989347   20.271186 H          1 MOL1         0.3769
      22    C7      14.649090   20.226736   20.550912 C.3        1 MOL1         0.2972
      23    H11     14.026643   21.092204   20.289255 H          1 MOL1         0.0751
      24    O6      16.002598   20.620017   20.862236 O.3        1 MOL1        -0.3740
      25    C8      14.042488   19.431891   21.736842 C.3        1 MOL1         0.1003
      26    H12     13.076071   19.037664   21.396349 H          1 MOL1         0.0783
      27    O7      13.821111   20.258764   22.888460 O.3        1 MOL1        -0.5519
      28    H13     14.711460   20.558705   23.202157 H          1 MOL1         0.3769
      29    C9      14.945312   18.228002   22.098228 C.3        1 MOL1         0.1053
      30    H14     15.886504   18.620712   22.508335 H          1 MOL1         0.0783
      31    O8      14.281711   17.430016   23.084289 O.3        1 MOL1        -0.5519
      32    H15     13.871920   18.077075   23.702605 H          1 MOL1         0.3769
      33    C10     15.285869   17.367516   20.849475 C.3        1 MOL1         0.1018
      34    H16     14.432371   16.722183   20.601825 H          1 MOL1         0.0783
      35    C11     15.646675   18.211138   19.596270 C.3        1 MOL1         0.1043
      36    H17     16.664184   18.602002   19.717743 H          1 MOL1         0.0783
      37    O9      14.710302   19.306640   19.441729 O.3        1 MOL1        -0.3740
      38    C12     15.603310   17.366406   18.305348 C.3        1 MOL1         0.0138
      39    H18     14.570560   17.043538   18.117603 H          1 MOL1         0.0794
      40    H19     16.215074   16.464712   18.442720 H          1 MOL1         0.0794
      41    O10     16.099795   18.127154   17.202334 O.3        1 MOL1        -0.5486
      42    H20     15.590180   18.967173   17.198458 H          1 MOL1         0.3769
      43    C13     18.426123   23.774514   21.974968 C.3        1 MOL1         0.2972
      44    H21     18.845599   24.728658   22.317601 H          1 MOL1         0.0751
      45    O11     19.430576   22.940120   21.363271 O.3        1 MOL1        -0.3740
      46    C14     17.790828   23.004157   23.161815 C.3        1 MOL1         0.1003
      47    H22     17.001491   23.644906   23.576013 H          1 MOL1         0.0783
      48    O12     18.755885   22.721455   24.188278 O.3        1 MOL1        -0.5519
      49    H23     19.493063   23.368718   24.078030 H          1 MOL1         0.3769
      50    C15     17.140444   21.686110   22.681918 C.3        1 MOL1         0.1053
      51    H24     17.941405   21.011953   22.357609 H          1 MOL1         0.0783
      52    O13     16.433275   21.095759   23.775991 O.3        1 MOL1        -0.5519
      53    H25     17.061853   21.150134   24.530983 H          1 MOL1         0.3769
      54    C16     16.192129   21.908648   21.476731 C.3        1 MOL1         0.1018
      55    H26     15.248479   22.337311   21.839358 H          1 MOL1         0.0783
      56    C17     16.814120   22.831013   20.390939 C.3        1 MOL1         0.1043
      57    H27     17.601797   22.268448   19.872316 H          1 MOL1         0.0783
      58    O14     17.386033   24.013157   21.003109 O.3        1 MOL1        -0.3740
      59    C18     15.795679   23.295056   19.325910 C.3        1 MOL1         0.0138
      60    H28     15.436137   22.419265   18.769538 H          1 MOL1         0.0794
      61    H29     16.308260   23.949571   18.608271 H          1 MOL1         0.0794
      62    O15     14.694766   23.982865   19.926981 O.3        1 MOL1        -0.5486
      63    H30     15.080435   24.735843   20.427883 H          1 MOL1         0.3769
      64    C19     23.588784   22.772077   21.158446 C.3        1 MOL1         0.2972
      65    H31     24.651638   22.970012   20.968126 H          1 MOL1         0.0751
      66    O16     23.359001   21.409211   21.563773 O.3        1 MOL1        -0.3740
      67    C20     23.046446   23.690916   22.280555 C.3        1 MOL1         0.1003
      68    H32     23.174437   24.728064   21.944228 H          1 MOL1         0.0783
      69    O17     23.775916   23.500261   23.503722 O.3        1 MOL1        -0.5519
      70    H33     23.853816   22.524243   23.655751 H          1 MOL1         0.3769
      71    C21     21.533616   23.446709   22.510535 C.3        1 MOL1         0.1053
      72    H34     21.411220   22.436167   22.924457 H          1 MOL1         0.0783
      73    O18     21.057833   24.414994   23.451886 O.3        1 MOL1        -0.5519
      74    H35     21.775043   24.486518   24.122843 H          1 MOL1         0.3769
      75    C22     20.737063   23.521650   21.174492 C.3        1 MOL1         0.1018
      76    H36     20.661878   24.565880   20.843065 H          1 MOL1         0.0783
      77    C23     21.410094   22.687290   20.052497 C.3        1 MOL1         0.1043
      78    H37     21.294809   21.622713   20.287153 H          1 MOL1         0.0783
      79    O19     22.813681   23.029854   19.969054 O.3        1 MOL1        -0.3740
      80    C24     20.778151   22.943464   18.668596 C.3        1 MOL1         0.0138
      81    H38     20.982337   23.977547   18.360387 H          1 MOL1         0.0794
      82    H39     19.689007   22.825035   18.739387 H          1 MOL1         0.0794
      83    O20     21.303411   22.018286   17.714414 O.3        1 MOL1        -0.5486
      84    H40     22.278616   22.127943   17.735430 H          1 MOL1         0.3769
      85    C25     25.145338   17.729380   21.932475 C.3        1 MOL1         0.2972
      86    H41     25.807814   16.860223   22.033602 H          1 MOL1         0.0751
      87    O21     23.777339   17.338381   21.693271 O.3        1 MOL1        -0.3740
      88    C26     25.194452   18.583761   23.222856 C.3        1 MOL1         0.1003
      89    H42     26.224156   18.945546   23.341012 H          1 MOL1         0.0783
      90    O22     24.834251   17.800210   24.371508 O.3        1 MOL1        -0.5519
      91    H43     24.317304   17.022140   24.044413 H          1 MOL1         0.3769
      92    C27     24.267431   19.813784   23.096015 C.3        1 MOL1         0.1053
      93    H44     23.235135   19.447534   23.088415 H          1 MOL1         0.0783
      94    O23     24.454764   20.675852   24.222445 O.3        1 MOL1        -0.5519
      95    H45     24.447976   20.076933   25.002408 H          1 MOL1         0.3769
      96    C28     24.528384   20.600261   21.785235 C.3        1 MOL1         0.1018
      97    H46     25.430342   21.210778   21.925515 H          1 MOL1         0.0783
      98    C29     24.693411   19.686090   20.537006 C.3        1 MOL1         0.1043
      99    H47     23.701010   19.310456   20.254456 H          1 MOL1         0.0783
     100    O24     25.567819   18.569666   20.839264 O.3        1 MOL1        -0.3740
     101    C30     25.278158   20.419227   19.309328 C.3        1 MOL1         0.0138
     102    H48     24.575916   21.199033   18.987583 H          1 MOL1         0.0794
     103    H49     25.370786   19.703422   18.481518 H          1 MOL1         0.0794
     104    O25     26.551631   20.996432   19.611322 O.3        1 MOL1        -0.5486
     105    H50     27.123550   20.257482   19.916821 H          1 MOL1         0.3769
     106    C31     21.379803   14.060184   20.814639 C.3        1 MOL1         0.2972
     107    H51     20.984598   13.087672   20.493859 H          1 MOL1         0.0751
     108    O26     20.316846   15.003534   21.060814 O.3        1 MOL1        -0.3740
     109    C32     22.262443   13.913462   22.085006 C.3        1 MOL1         0.1003
     110    H52     23.102342   13.259050   21.817747 H          1 MOL1         0.0783
     111    O27     21.546689   13.319136   23.177841 O.3        1 MOL1        -0.5519
     112    H53     20.809593   13.938204   23.411526 H          1 MOL1         0.3769
     113    C33     22.844698   15.285028   22.501475 C.3        1 MOL1         0.1053
     114    H54     22.011681   15.930723   22.812900 H          1 MOL1         0.0783
     115    O28     23.756241   15.109270   23.590469 O.3        1 MOL1        -0.5519
     116    H55     23.311411   14.476877   24.198395 H          1 MOL1         0.3769
     117    C34     23.568527   15.965611   21.313247 C.3        1 MOL1         0.1018
     118    H56     24.514174   15.442855   21.116859 H          1 MOL1         0.0783
     119    C35     22.716637   15.957290   20.016484 C.3        1 MOL1         0.1043
     120    H57     21.886320   16.662868   20.133820 H          1 MOL1         0.0783
     121    O29     22.217284   14.616242   19.778153 O.3        1 MOL1        -0.3740
     122    C36     23.533932   16.373116   18.775750 C.3        1 MOL1         0.0138
     123    H58     24.330833   15.637630   18.602681 H          1 MOL1         0.0794
     124    H59     24.010997   17.343167   18.961162 H          1 MOL1         0.0794
     125    O30     22.678800   16.464082   17.634946 O.3        1 MOL1        -0.5486
     126    H60     22.213803   15.601316   17.575545 H          1 MOL1         0.3769
     127    C1      20.080654   18.927242   23.468486 C.3        1 MOL1        -0.2400
     128    H1      20.547823   19.565264   24.229898 H          1 MOL1         0.0971
     129    H2      18.999138   18.912494   23.658555 H          1 MOL1         0.0971
     130    H3      20.465938   17.907601   23.599167 H          1 MOL1         0.0971
     131    C2      20.388085   19.458802   22.053887 C.3        1 MOL1        -0.1385
     132    H4      21.470695   19.460296   21.887988 H          1 MOL1         0.0960
     133    H5      20.058555   20.500304   21.975688 H          1 MOL1         0.0960
     134    C3      19.716205   18.608162   20.960253 C.3        1 MOL1        -0.1409
     135    H6      20.051982   17.571827   21.067457 H          1 MOL1         0.0960
     136    H7      18.626486   18.609396   21.100426 H          1 MOL1         0.0960
     137    C4      20.066546   19.108229   19.543562 C.3        1 MOL1        -0.1409
     138    H8      21.154656   19.230623   19.450314 H          1 MOL1         0.0960
     139    H9      19.617862   20.098087   19.381950 H          1 MOL1         0.0960
     140    C5      19.576206   18.128549   18.457406 C.3        1 MOL1        -0.1409
     141    H10     20.034435   17.142321   18.613758 H          1 MOL1         0.0960
     142    H11     18.492733   17.990424   18.545736 H          1 MOL1         0.0960
     143    C6      19.915433   18.633717   17.040513 C.3        1 MOL1        -0.1450
     144    H12     21.003700   18.745049   16.939945 H          1 MOL1         0.0960
     145    H13     19.473809   19.627415   16.885390 H          1 MOL1         0.0960
     146    C7      19.393514   17.664284   15.967317 C.3        1 MOL1         0.0172
     147    H14     19.835133   16.675932   16.120387 H          1 MOL1         0.0934
     148    H15     18.306312   17.574943   16.051015 H          1 MOL1         0.0934
     149    N1      19.722430   18.110428   14.557990 N.4        1 MOL1        -0.5956
     150    H16     19.364850   17.452601   13.857424 H          1 MOL1         0.3624
     151    H17     20.734322   18.186516   14.412539 H          1 MOL1         0.3624
     152    H18     19.314940   19.026840   14.346654 H          1 MOL1         0.3624
@<TRIPOS>BOND
    1     1     2    1
    2     1     3    1
    3     1     4    1
    4     4     5    1
    5     4     6    1
    6     6     7    1
    7     4     8    1
    8     8     9    1
    9     8    10    1
   10    10    11    1
   11     8    12    1
   12    12    13    1
   13    12    14    1
   14    14    15    1
   15     1    16    1
   16    14    16    1
   17    14    17    1
   18    17    18    1
   19    17    19    1
   20    17    20    1
   21    20    21    1
   22    22    23    1
   23    22    24    1
   24    22    25    1
   25    25    26    1
   26    25    27    1
   27    27    28    1
   28    25    29    1
   29    29    30    1
   30    29    31    1
   31    31    32    1
   32     3    33    1
   33    29    33    1
   34    33    34    1
   35    33    35    1
   36    35    36    1
   37    22    37    1
   38    35    37    1
   39    35    38    1
   40    38    39    1
   41    38    40    1
   42    38    41    1
   43    41    42    1
   44    43    44    1
   45    43    45    1
   46    43    46    1
   47    46    47    1
   48    46    48    1
   49    48    49    1
   50    46    50    1
   51    50    51    1
   52    50    52    1
   53    52    53    1
   54    24    54    1
   55    50    54    1
   56    54    55    1
   57    54    56    1
   58    56    57    1
   59    43    58    1
   60    56    58    1
   61    56    59    1
   62    59    60    1
   63    59    61    1
   64    59    62    1
   65    62    63    1
   66    64    65    1
   67    64    66    1
   68    64    67    1
   69    67    68    1
   70    67    69    1
   71    69    70    1
   72    67    71    1
   73    71    72    1
   74    71    73    1
   75    73    74    1
   76    45    75    1
   77    71    75    1
   78    75    76    1
   79    75    77    1
   80    77    78    1
   81    64    79    1
   82    77    79    1
   83    77    80    1
   84    80    81    1
   85    80    82    1
   86    80    83    1
   87    83    84    1
   88    85    86    1
   89    85    87    1
   90    85    88    1
   91    88    89    1
   92    88    90    1
   93    90    91    1
   94    88    92    1
   95    92    93    1
   96    92    94    1
   97    94    95    1
   98    66    96    1
   99    92    96    1
  100    96    97    1
  101    96    98    1
  102    98    99    1
  103    85   100    1
  104    98   100    1
  105    98   101    1
  106   101   102    1
  107   101   103    1
  108   101   104    1
  109   104   105    1
  110   106   107    1
  111    12   108    1
  112   106   108    1
  113   106   109    1
  114   109   110    1
  115   109   111    1
  116   111   112    1
  117   109   113    1
  118   113   114    1
  119   113   115    1
  120   115   116    1
  121    87   117    1
  122   113   117    1
  123   117   118    1
  124   117   119    1
  125   119   120    1
  126   106   121    1
  127   119   121    1
  128   119   122    1
  129   122   123    1
  130   122   124    1
  131   122   125    1
  132   125   126    1
  133   127   128    1
  134   127   129    1
  135   127   130    1
  136   127   131    1
  137   131   132    1
  138   131   133    1
  139   131   134    1
  140   134   135    1
  141   134   136    1
  142   134   137    1
  143   137   138    1
  144   137   139    1
  145   137   140    1
  146   140   141    1
  147   140   142    1
  148   140   143    1
  149   143   144    1
  150   143   145    1
  151   143   146    1
  152   146   147    1
  153   146   148    1
  154   146   149    1
  155   149   150    1
  156   149   151    1
  157   149   152    1
@<TRIPOS>SUBSTRUCTURE
       1 MOL1            1 RESIDUE      1      MOL     
       2 MOL1          152 RESIDUE      1      MOL     
@<SCITEGIC>MOL_PROPERTY
VM2 Rank
SciTegic.value.IntegerValue
1

@<SCITEGIC>MOL_PROPERTY
Conf_Id
SciTegic.value.IntegerValue
27652

@<SCITEGIC>MOL_PROPERTY
Probability
SciTegic.value.DoubleValue
4.78

@<SCITEGIC>MOL_PROPERTY
Sum Probability
SciTegic.value.DoubleValue
4.78

@<SCITEGIC>MOL_PROPERTY
Delta G
SciTegic.value.DoubleValue
0.000

@<SCITEGIC>MOL_PROPERTY
G
SciTegic.value.DoubleValue
565.640

@<SCITEGIC>MOL_PROPERTY
E
SciTegic.value.DoubleValue
364.079

@<SCITEGIC>MOL_PROPERTY
-TS
SciTegic.value.DoubleValue
201.562

@<SCITEGIC>MOL_PROPERTY
U+W
SciTegic.value.DoubleValue
229.942

@<SCITEGIC>MOL_PROPERTY
U
SciTegic.value.DoubleValue
302.740

@<SCITEGIC>MOL_PROPERTY
W
SciTegic.value.DoubleValue
-72.798

@<SCITEGIC>MOL_PROPERTY
W(PB)
SciTegic.value.DoubleValue
-78.923

@<SCITEGIC>MOL_PROPERTY
W(SA)
SciTegic.value.DoubleValue
6.125

@<SCITEGIC>MOL_PROPERTY
Valence
SciTegic.value.DoubleValue
146.266

@<SCITEGIC>MOL_PROPERTY
Coulomb
SciTegic.value.DoubleValue
183.058

@<SCITEGIC>MOL_PROPERTY
VdW
SciTegic.value.DoubleValue
-26.583

@<SCITEGIC>MOL_PROPERTY
VdW6
SciTegic.value.DoubleValue
-176.637

@<SCITEGIC>MOL_PROPERTY
VdW12
SciTegic.value.DoubleValue
150.053

@<SCITEGIC>MOL_PROPERTY
Bond
SciTegic.value.DoubleValue
4.318

@<SCITEGIC>MOL_PROPERTY
Angle
SciTegic.value.DoubleValue
9.611

@<SCITEGIC>MOL_PROPERTY
Pdih
SciTegic.value.DoubleValue
132.337

@<SCITEGIC>MOL_PROPERTY
Idih
SciTegic.value.DoubleValue
0.000

@<SCITEGIC>MOL_PROPERTY
Tether
SciTegic.value.DoubleValue
0.000

