@<TRIPOS>MOLECULE
CD_guest-s18_vm2_rndm.mol2 : vm2 host+ligand conformer 1
         142         147           2
SMALL
USER_CHARGES
 
@<TRIPOS>ATOM
       1    C1      16.343876   15.280419   20.737440 C.3        1 MOL1         0.2972
       2    H1      15.292723   15.148427   20.450715 H          1 MOL1         0.0751
       3    O1      16.639370   16.662698   21.019909 O.3        1 MOL1        -0.3740
       4    C2      16.694688   14.403692   21.971873 C.3        1 MOL1         0.1003
       5    H2      16.516954   13.359217   21.685816 H          1 MOL1         0.0783
       6    O2      15.848773   14.725519   23.087343 O.3        1 MOL1        -0.5519
       7    H3      16.085899   15.643085   23.372878 H          1 MOL1         0.3769
       8    C3      18.197042   14.542410   22.337341 C.3        1 MOL1         0.1053
       9    H4      18.364228   15.562682   22.705877 H          1 MOL1         0.0783
      10    O3      18.563611   13.590727   23.344737 O.3        1 MOL1        -0.5519
      11    H5      19.524936   13.729365   23.531205 H          1 MOL1         0.3769
      12    C4      19.100365   14.319540   21.098218 C.3        1 MOL1         0.1018
      13    H6      19.109236   13.247723   20.860190 H          1 MOL1         0.0783
      14    C5      18.618815   15.105301   19.850080 C.3        1 MOL1         0.1043
      15    H7      18.809563   16.174407   20.012210 H          1 MOL1         0.0783
      16    O4      17.201576   14.873860   19.651138 O.3        1 MOL1        -0.3740
      17    C6      19.341557   14.685853   18.550708 C.3        1 MOL1         0.0138
      18    H8      20.416151   14.880323   18.656522 H          1 MOL1         0.0794
      19    H9      18.975203   15.312515   17.726724 H          1 MOL1         0.0794
      20    O5      19.116073   13.303192   18.259360 O.3        1 MOL1        -0.5486
      21    H10     18.140290   13.183988   18.247795 H          1 MOL1         0.3769
      22    C7      14.877884   20.328349   21.725851 C.3        1 MOL1         0.2972
      23    H11     14.222733   21.176200   21.962445 H          1 MOL1         0.0751
      24    O6      16.109958   20.759729   21.109748 O.3        1 MOL1        -0.3740
      25    C8      15.209853   19.524356   23.009278 C.3        1 MOL1         0.1003
      26    H12     14.265557   19.117250   23.392895 H          1 MOL1         0.0783
      27    O7      15.783379   20.382942   24.009385 O.3        1 MOL1        -0.5519
      28    H13     16.669011   20.004373   24.259450 H          1 MOL1         0.3769
      29    C9      16.135780   18.329267   22.667527 C.3        1 MOL1         0.1053
      30    H14     17.097907   18.734850   22.333414 H          1 MOL1         0.0783
      31    O8      16.338463   17.508765   23.824614 O.3        1 MOL1        -0.5519
      32    H15     17.004927   18.001033   24.372221 H          1 MOL1         0.3769
      33    C10     15.553581   17.471411   21.515210 C.3        1 MOL1         0.1018
      34    H16     14.735025   16.858935   21.915638 H          1 MOL1         0.0783
      35    C11     15.037826   18.330177   20.324604 C.3        1 MOL1         0.1043
      36    H17     15.908718   18.731355   19.789220 H          1 MOL1         0.0783
      37    O9      14.220750   19.423636   20.813018 O.3        1 MOL1        -0.3740
      38    C12     14.194127   17.534083   19.303971 C.3        1 MOL1         0.0138
      39    H18     14.832160   16.783125   18.819736 H          1 MOL1         0.0794
      40    H19     13.849134   18.221449   18.519912 H          1 MOL1         0.0794
      41    O10     13.077317   16.900780   19.934917 O.3        1 MOL1        -0.5486
      42    H20     12.561426   17.618057   20.366104 H          1 MOL1         0.3769
      43    C13     18.444001   24.099442   20.515765 C.3        1 MOL1         0.2972
      44    H21     18.895088   25.063138   20.246697 H          1 MOL1         0.0751
      45    O11     19.454056   23.126749   20.861200 O.3        1 MOL1        -0.3740
      46    C14     17.424378   24.264870   21.675098 C.3        1 MOL1         0.1003
      47    H22     16.618723   24.910075   21.302109 H          1 MOL1         0.0783
      48    O12     18.026578   24.901014   22.812636 O.3        1 MOL1        -0.5519
      49    H23     18.609660   24.222383   23.235527 H          1 MOL1         0.3769
      50    C15     16.794107   22.896300   22.048736 C.3        1 MOL1         0.1053
      51    H24     17.580835   22.268116   22.489285 H          1 MOL1         0.0783
      52    O13     15.738264   23.089373   22.997677 O.3        1 MOL1        -0.5519
      53    H25     15.663922   22.238275   23.494722 H          1 MOL1         0.3769
      54    C16     16.237009   22.160997   20.795435 C.3        1 MOL1         0.1018
      55    H26     15.269028   22.595860   20.513439 H          1 MOL1         0.0783
      56    C17     17.191886   22.228124   19.571449 C.3        1 MOL1         0.1043
      57    H27     18.023476   21.533649   19.747069 H          1 MOL1         0.0783
      58    O14     17.706550   23.571949   19.394948 O.3        1 MOL1        -0.3740
      59    C18     16.505892   21.809175   18.252400 C.3        1 MOL1         0.0138
      60    H28     16.121060   20.786102   18.357832 H          1 MOL1         0.0794
      61    H29     17.258284   21.797775   17.452579 H          1 MOL1         0.0794
      62    O15     15.441432   22.705258   17.918901 O.3        1 MOL1        -0.5486
      63    H30     15.833614   23.606946   17.927803 H          1 MOL1         0.3769
      64    C19     23.332707   22.669733   22.245941 C.3        1 MOL1         0.2972
      65    H31     24.336798   22.803887   22.667194 H          1 MOL1         0.0751
      66    O16     23.195721   21.388077   21.596565 O.3        1 MOL1        -0.3740
      67    C20     22.259788   22.788042   23.359204 C.3        1 MOL1         0.1003
      68    H32     22.338004   23.799060   23.779109 H          1 MOL1         0.0783
      69    O17     22.510619   21.834426   24.404953 O.3        1 MOL1        -0.5519
      70    H33     21.667010   21.329565   24.557683 H          1 MOL1         0.3769
      71    C21     20.835594   22.636694   22.765235 C.3        1 MOL1         0.1053
      72    H34     20.721132   21.611106   22.392930 H          1 MOL1         0.0783
      73    O18     19.856973   22.894990   23.779571 O.3        1 MOL1        -0.5519
      74    H35     19.795009   22.053795   24.306785 H          1 MOL1         0.3769
      75    C22     20.618556   23.598355   21.568556 C.3        1 MOL1         0.1018
      76    H36     20.482847   24.617625   21.952690 H          1 MOL1         0.0783
      77    C23     21.802602   23.571520   20.561921 C.3        1 MOL1         0.1043
      78    H37     21.775273   22.614941   20.024119 H          1 MOL1         0.0783
      79    O19     23.062243   23.696936   21.268060 O.3        1 MOL1        -0.3740
      80    C24     21.737965   24.699541   19.508207 C.3        1 MOL1         0.0138
      81    H38     20.843907   24.557365   18.886729 H          1 MOL1         0.0794
      82    H39     22.611154   24.615503   18.847483 H          1 MOL1         0.0794
      83    O20     21.707447   25.988074   20.128927 O.3        1 MOL1        -0.5486
      84    H40     22.508948   26.039143   20.695995 H          1 MOL1         0.3769
      85    C25     25.173713   17.725056   21.422010 C.3        1 MOL1         0.2972
      86    H41     25.902127   16.916865   21.280149 H          1 MOL1         0.0751
      87    O21     23.843331   17.218973   21.645003 O.3        1 MOL1        -0.3740
      88    C26     25.562739   18.597886   22.640104 C.3        1 MOL1         0.1003
      89    H42     26.554907   19.021282   22.436555 H          1 MOL1         0.0783
      90    O22     25.619941   17.817315   23.842662 O.3        1 MOL1        -0.5519
      91    H43     25.726060   18.479833   24.561922 H          1 MOL1         0.3769
      92    C27     24.571108   19.772599   22.822975 C.3        1 MOL1         0.1053
      93    H44     23.600267   19.352354   23.119355 H          1 MOL1         0.0783
      94    O23     25.064941   20.628090   23.860288 O.3        1 MOL1        -0.5519
      95    H45     24.274817   21.115987   24.202079 H          1 MOL1         0.3769
      96    C28     24.375621   20.564085   21.496406 C.3        1 MOL1         0.1018
      97    H46     25.266766   21.173029   21.294624 H          1 MOL1         0.0783
      98    C29     24.132584   19.622933   20.285968 C.3        1 MOL1         0.1043
      99    H47     23.132318   19.178386   20.374619 H          1 MOL1         0.0783
     100    O24     25.146839   18.588503   20.266411 O.3        1 MOL1        -0.3740
     101    C30     24.210646   20.376903   18.942077 C.3        1 MOL1         0.0138
     102    H48     25.208468   20.822477   18.833694 H          1 MOL1         0.0794
     103    H49     23.477435   21.194255   18.943337 H          1 MOL1         0.0794
     104    O25     23.942325   19.481639   17.861022 O.3        1 MOL1        -0.5486
     105    H50     24.560514   18.727097   17.977623 H          1 MOL1         0.3769
     106    C31     21.473724   13.832326   21.428018 C.3        1 MOL1         0.2972
     107    H51     21.086891   12.809295   21.341677 H          1 MOL1         0.0751
     108    O26     20.409590   14.805962   21.453342 O.3        1 MOL1        -0.3740
     109    C32     22.304323   13.969546   22.728661 C.3        1 MOL1         0.1003
     110    H52     23.130504   13.249360   22.666623 H          1 MOL1         0.0783
     111    O27     21.509798   13.676907   23.886664 O.3        1 MOL1        -0.5519
     112    H53     22.069660   13.952304   24.647037 H          1 MOL1         0.3769
     113    C33     22.916177   15.383566   22.852055 C.3        1 MOL1         0.1053
     114    H54     22.096436   16.094526   23.015934 H          1 MOL1         0.0783
     115    O28     23.821913   15.419476   23.961847 O.3        1 MOL1        -0.5519
     116    H55     24.293932   16.287889   23.914228 H          1 MOL1         0.3769
     117    C34     23.665215   15.793952   21.560416 C.3        1 MOL1         0.1018
     118    H56     24.622760   15.257889   21.525470 H          1 MOL1         0.0783
     119    C35     22.848669   15.495276   20.272737 C.3        1 MOL1         0.1043
     120    H57     22.011048   16.203237   20.217693 H          1 MOL1         0.0783
     121    O29     22.342148   14.138269   20.316669 O.3        1 MOL1        -0.3740
     122    C36     23.674234   15.642145   18.975811 C.3        1 MOL1         0.0138
     123    H58     24.001860   16.684275   18.875687 H          1 MOL1         0.0794
     124    H59     23.025785   15.420231   18.117790 H          1 MOL1         0.0794
     125    O30     24.805391   14.766247   18.982200 O.3        1 MOL1        -0.5486
     126    H60     24.448525   13.860930   19.121911 H          1 MOL1         0.3769
     127    C1      19.475013   19.391819   24.381285 C.2        1 MOL1         0.6075
     128    O1      20.187280   20.310993   24.739084 O.co2      1 MOL1        -0.6830
     129    O2      18.290062   19.318711   24.646853 O.co2      1 MOL1        -0.6830
     130    C2      20.101236   18.256969   23.573484 C.3        1 MOL1        -0.2050
     131    H1      19.352948   17.468686   23.439722 H          1 MOL1         0.0710
     132    H2      20.901563   17.832039   24.189666 H          1 MOL1         0.0710
     133    C3      20.681235   18.674323   22.196337 C.3        1 MOL1        -0.1947
     134    H3      21.419267   19.471173   22.341423 H          1 MOL1         0.0712
     135    H4      21.221148   17.822399   21.769204 H          1 MOL1         0.0712
     136    C4      19.607164   19.129431   21.186948 C.3        1 MOL1        -0.1921
     137    H5      19.050305   19.986771   21.589932 H          1 MOL1         0.0712
     138    H6      18.885275   18.318290   21.031849 H          1 MOL1         0.0712
     139    C5      20.235543   19.512067   19.832467 C.3        1 MOL1        -0.2936
     140    H7      19.459644   19.789632   19.108793 H          1 MOL1         0.0724
     141    H8      20.804914   18.673161   19.412005 H          1 MOL1         0.0724
     142    H9      20.915568   20.365309   19.946815 H          1 MOL1         0.0724
@<TRIPOS>BOND
    1     1     2    1
    2     1     3    1
    3     1     4    1
    4     4     5    1
    5     4     6    1
    6     6     7    1
    7     4     8    1
    8     8     9    1
    9     8    10    1
   10    10    11    1
   11     8    12    1
   12    12    13    1
   13    12    14    1
   14    14    15    1
   15     1    16    1
   16    14    16    1
   17    14    17    1
   18    17    18    1
   19    17    19    1
   20    17    20    1
   21    20    21    1
   22    22    23    1
   23    22    24    1
   24    22    25    1
   25    25    26    1
   26    25    27    1
   27    27    28    1
   28    25    29    1
   29    29    30    1
   30    29    31    1
   31    31    32    1
   32     3    33    1
   33    29    33    1
   34    33    34    1
   35    33    35    1
   36    35    36    1
   37    22    37    1
   38    35    37    1
   39    35    38    1
   40    38    39    1
   41    38    40    1
   42    38    41    1
   43    41    42    1
   44    43    44    1
   45    43    45    1
   46    43    46    1
   47    46    47    1
   48    46    48    1
   49    48    49    1
   50    46    50    1
   51    50    51    1
   52    50    52    1
   53    52    53    1
   54    24    54    1
   55    50    54    1
   56    54    55    1
   57    54    56    1
   58    56    57    1
   59    43    58    1
   60    56    58    1
   61    56    59    1
   62    59    60    1
   63    59    61    1
   64    59    62    1
   65    62    63    1
   66    64    65    1
   67    64    66    1
   68    64    67    1
   69    67    68    1
   70    67    69    1
   71    69    70    1
   72    67    71    1
   73    71    72    1
   74    71    73    1
   75    73    74    1
   76    45    75    1
   77    71    75    1
   78    75    76    1
   79    75    77    1
   80    77    78    1
   81    64    79    1
   82    77    79    1
   83    77    80    1
   84    80    81    1
   85    80    82    1
   86    80    83    1
   87    83    84    1
   88    85    86    1
   89    85    87    1
   90    85    88    1
   91    88    89    1
   92    88    90    1
   93    90    91    1
   94    88    92    1
   95    92    93    1
   96    92    94    1
   97    94    95    1
   98    66    96    1
   99    92    96    1
  100    96    97    1
  101    96    98    1
  102    98    99    1
  103    85   100    1
  104    98   100    1
  105    98   101    1
  106   101   102    1
  107   101   103    1
  108   101   104    1
  109   104   105    1
  110   106   107    1
  111    12   108    1
  112   106   108    1
  113   106   109    1
  114   109   110    1
  115   109   111    1
  116   111   112    1
  117   109   113    1
  118   113   114    1
  119   113   115    1
  120   115   116    1
  121    87   117    1
  122   113   117    1
  123   117   118    1
  124   117   119    1
  125   119   120    1
  126   106   121    1
  127   119   121    1
  128   119   122    1
  129   122   123    1
  130   122   124    1
  131   122   125    1
  132   125   126    1
  133   127   128    1
  134   127   129    2
  135   127   130    1
  136   130   131    1
  137   130   132    1
  138   130   133    1
  139   133   134    1
  140   133   135    1
  141   133   136    1
  142   136   137    1
  143   136   138    1
  144   136   139    1
  145   139   140    1
  146   139   141    1
  147   139   142    1
@<TRIPOS>SUBSTRUCTURE
       1 MOL1            1 RESIDUE      1      MOL     
       2 MOL1          142 RESIDUE      1      MOL     
@<SCITEGIC>MOL_PROPERTY
VM2 Rank
SciTegic.value.IntegerValue
1

@<SCITEGIC>MOL_PROPERTY
Conf_Id
SciTegic.value.IntegerValue
4483

@<SCITEGIC>MOL_PROPERTY
Probability
SciTegic.value.DoubleValue
1.29

@<SCITEGIC>MOL_PROPERTY
Sum Probability
SciTegic.value.DoubleValue
1.29

@<SCITEGIC>MOL_PROPERTY
Delta G
SciTegic.value.DoubleValue
0.000

@<SCITEGIC>MOL_PROPERTY
G
SciTegic.value.DoubleValue
481.869

@<SCITEGIC>MOL_PROPERTY
E
SciTegic.value.DoubleValue
296.405

@<SCITEGIC>MOL_PROPERTY
-TS
SciTegic.value.DoubleValue
185.464

@<SCITEGIC>MOL_PROPERTY
U+W
SciTegic.value.DoubleValue
171.211

@<SCITEGIC>MOL_PROPERTY
U
SciTegic.value.DoubleValue
234.021

@<SCITEGIC>MOL_PROPERTY
W
SciTegic.value.DoubleValue
-62.810

@<SCITEGIC>MOL_PROPERTY
W(PB)
SciTegic.value.DoubleValue
-68.826

@<SCITEGIC>MOL_PROPERTY
W(SA)
SciTegic.value.DoubleValue
6.015

@<SCITEGIC>MOL_PROPERTY
Valence
SciTegic.value.DoubleValue
150.556

@<SCITEGIC>MOL_PROPERTY
Coulomb
SciTegic.value.DoubleValue
104.129

@<SCITEGIC>MOL_PROPERTY
VdW
SciTegic.value.DoubleValue
-20.665

@<SCITEGIC>MOL_PROPERTY
VdW6
SciTegic.value.DoubleValue
-181.085

@<SCITEGIC>MOL_PROPERTY
VdW12
SciTegic.value.DoubleValue
160.420

@<SCITEGIC>MOL_PROPERTY
Bond
SciTegic.value.DoubleValue
5.079

@<SCITEGIC>MOL_PROPERTY
Angle
SciTegic.value.DoubleValue
12.122

@<SCITEGIC>MOL_PROPERTY
Pdih
SciTegic.value.DoubleValue
133.355

@<SCITEGIC>MOL_PROPERTY
Idih
SciTegic.value.DoubleValue
0.001

@<SCITEGIC>MOL_PROPERTY
Tether
SciTegic.value.DoubleValue
0.000

