@<TRIPOS>MOLECULE
CD_guest-s13_vm2_rndm.mol2 : vm2 host+ligand conformer 1
         152         157           2
SMALL
USER_CHARGES
 
@<TRIPOS>ATOM
       1    C1      16.211301   15.285927   21.893773 C.3        1 MOL1         0.2972
       2    H1      15.152116   15.145239   22.145205 H          1 MOL1         0.0751
       3    O1      16.447242   16.550993   21.247723 O.3        1 MOL1        -0.3740
       4    C2      17.088544   15.214954   23.169212 C.3        1 MOL1         0.1003
       5    H2      16.968287   14.210248   23.594920 H          1 MOL1         0.0783
       6    O2      16.686011   16.193762   24.141561 O.3        1 MOL1        -0.5519
       7    H3      15.844240   16.598289   23.819308 H          1 MOL1         0.3769
       8    C3      18.577699   15.414815   22.807739 C.3        1 MOL1         0.1053
       9    H4      18.694531   16.450083   22.464227 H          1 MOL1         0.0783
      10    O3      19.383373   15.196339   23.970479 O.3        1 MOL1        -0.5519
      11    H5      18.930497   15.701223   24.682631 H          1 MOL1         0.3769
      12    C4      19.030228   14.473402   21.663189 C.3        1 MOL1         0.1018
      13    H6      19.180558   13.467468   22.076489 H          1 MOL1         0.0783
      14    C5      18.012844   14.412688   20.487013 C.3        1 MOL1         0.1043
      15    H7      18.082949   15.353499   19.925012 H          1 MOL1         0.0783
      16    O4      16.665374   14.248817   20.998839 O.3        1 MOL1        -0.3740
      17    C6      18.279723   13.262148   19.490959 C.3        1 MOL1         0.0138
      18    H8      19.235684   13.442942   18.982238 H          1 MOL1         0.0794
      19    H9      17.496138   13.273046   18.721487 H          1 MOL1         0.0794
      20    O5      18.305164   11.995458   20.154917 O.3        1 MOL1        -0.5486
      21    H10     17.433308   11.898179   20.598618 H          1 MOL1         0.3769
      22    C7      14.703992   20.161024   20.429786 C.3        1 MOL1         0.2972
      23    H11     14.099631   21.017956   20.107110 H          1 MOL1         0.0751
      24    O6      16.046228   20.561806   20.787752 O.3        1 MOL1        -0.3740
      25    C8      14.027331   19.408858   21.606069 C.3        1 MOL1         0.1003
      26    H12     13.085888   18.995164   21.221460 H          1 MOL1         0.0783
      27    O7      13.726455   20.278794   22.705836 O.3        1 MOL1        -0.5519
      28    H13     14.593222   20.581547   23.076550 H          1 MOL1         0.3769
      29    C9      14.912554   18.224302   22.061017 C.3        1 MOL1         0.1053
      30    H14     15.840935   18.635580   22.481633 H          1 MOL1         0.0783
      31    O8      14.221495   17.471391   23.063507 O.3        1 MOL1        -0.5519
      32    H15     13.785566   18.144441   23.634096 H          1 MOL1         0.3769
      33    C10     15.289647   17.310282   20.862416 C.3        1 MOL1         0.1018
      34    H16     14.443021   16.659908   20.604691 H          1 MOL1         0.0783
      35    C11     15.720185   18.100965   19.598088 C.3        1 MOL1         0.1043
      36    H17     16.736642   18.475885   19.760806 H          1 MOL1         0.0783
      37    O9      14.812050   19.204747   19.356355 O.3        1 MOL1        -0.3740
      38    C12     15.735071   17.214587   18.335965 C.3        1 MOL1         0.0138
      39    H18     14.712356   16.882431   18.112927 H          1 MOL1         0.0794
      40    H19     16.342570   16.320477   18.528470 H          1 MOL1         0.0794
      41    O10     16.278176   17.944214   17.234348 O.3        1 MOL1        -0.5486
      42    H20     15.751628   18.770983   17.171597 H          1 MOL1         0.3769
      43    C13     18.395560   23.751223   22.044749 C.3        1 MOL1         0.2972
      44    H21     18.758825   24.720718   22.408853 H          1 MOL1         0.0751
      45    O11     19.473957   22.938980   21.537703 O.3        1 MOL1        -0.3740
      46    C14     17.665024   22.990589   23.183036 C.3        1 MOL1         0.1003
      47    H22     16.840784   23.633528   23.518397 H          1 MOL1         0.0783
      48    O12     18.534012   22.724387   24.295432 O.3        1 MOL1        -0.5519
      49    H23     19.290022   23.356314   24.230055 H          1 MOL1         0.3769
      50    C15     17.060707   21.663488   22.673096 C.3        1 MOL1         0.1053
      51    H24     17.890599   20.987452   22.440496 H          1 MOL1         0.0783
      52    O13     16.264854   21.097923   23.716971 O.3        1 MOL1        -0.5519
      53    H25     16.827978   21.172190   24.520694 H          1 MOL1         0.3769
      54    C16     16.222101   21.862968   21.382874 C.3        1 MOL1         0.1018
      55    H26     15.263530   22.331463   21.643214 H          1 MOL1         0.0783
      56    C17     16.965941   22.737248   20.336459 C.3        1 MOL1         0.1043
      57    H27     17.805275   22.159023   19.928142 H          1 MOL1         0.0783
      58    O14     17.448554   23.946474   20.973693 O.3        1 MOL1        -0.3740
      59    C18     16.061236   23.160408   19.161244 C.3        1 MOL1         0.0138
      60    H28     15.232612   23.772871   19.541298 H          1 MOL1         0.0794
      61    H29     15.632338   22.265575   18.691389 H          1 MOL1         0.0794
      62    O15     16.826269   23.889555   18.199914 O.3        1 MOL1        -0.5486
      63    H30     17.280468   24.604073   18.699697 H          1 MOL1         0.3769
      64    C19     23.635647   22.916325   21.610351 C.3        1 MOL1         0.2972
      65    H31     24.700993   23.166096   21.529219 H          1 MOL1         0.0751
      66    O16     23.428756   21.519058   21.889327 O.3        1 MOL1        -0.3740
      67    C20     22.985321   23.717917   22.760816 C.3        1 MOL1         0.1003
      68    H32     23.121630   24.783978   22.536873 H          1 MOL1         0.0783
      69    O17     23.623240   23.409739   24.011050 O.3        1 MOL1        -0.5519
      70    H33     23.840239   22.444198   23.995318 H          1 MOL1         0.3769
      71    C21     21.464653   23.437877   22.848220 C.3        1 MOL1         0.1053
      72    H34     21.330377   22.403847   23.195227 H          1 MOL1         0.0783
      73    O18     20.897469   24.347432   23.797659 O.3        1 MOL1        -0.5519
      74    H35     21.545772   24.373805   24.538216 H          1 MOL1         0.3769
      75    C22     20.767708   23.572235   21.462461 C.3        1 MOL1         0.1018
      76    H36     20.677737   24.632801   21.192085 H          1 MOL1         0.0783
      77    C23     21.552629   22.841371   20.340213 C.3        1 MOL1         0.1043
      78    H37     21.462492   21.757385   20.489693 H          1 MOL1         0.0783
      79    O19     22.938940   23.250936   20.394884 O.3        1 MOL1        -0.3740
      80    C24     21.037384   23.175999   18.924839 C.3        1 MOL1         0.0138
      81    H38     21.255357   24.228197   18.698529 H          1 MOL1         0.0794
      82    H39     19.947148   23.049771   18.892827 H          1 MOL1         0.0794
      83    O20     21.661120   22.314146   17.966267 O.3        1 MOL1        -0.5486
      84    H40     22.630275   22.399984   18.106219 H          1 MOL1         0.3769
      85    C25     25.175067   17.782250   21.603497 C.3        1 MOL1         0.2972
      86    H41     25.860297   16.931010   21.503712 H          1 MOL1         0.0751
      87    O21     23.796842   17.362085   21.638493 O.3        1 MOL1        -0.3740
      88    C26     25.477905   18.551623   22.912167 C.3        1 MOL1         0.1003
      89    H42     26.513449   18.911063   22.853059 H          1 MOL1         0.0783
      90    O22     25.340699   17.690644   24.053848 O.3        1 MOL1        -0.5519
      91    H43     24.686068   16.987837   23.813440 H          1 MOL1         0.3769
      92    C27     24.552152   19.782217   23.046667 C.3        1 MOL1         0.1053
      93    H44     23.527529   19.418675   23.201248 H          1 MOL1         0.0783
      94    O23     24.955795   20.569292   24.172339 O.3        1 MOL1        -0.5519
      95    H45     25.091252   19.921412   24.899453 H          1 MOL1         0.3769
      96    C28     24.571826   20.653741   21.765917 C.3        1 MOL1         0.1018
      97    H46     25.516040   21.213393   21.734665 H          1 MOL1         0.0783
      98    C29     24.414849   19.816007   20.465247 C.3        1 MOL1         0.1043
      99    H47     23.379334   19.457151   20.405810 H          1 MOL1         0.0783
     100    O24     25.338729   18.699373   20.502776 O.3        1 MOL1        -0.3740
     101    C30     24.726915   20.614308   19.179987 C.3        1 MOL1         0.0138
     102    H48     25.814526   20.723107   19.073367 H          1 MOL1         0.0794
     103    H49     24.307123   21.620342   19.257275 H          1 MOL1         0.0794
     104    O25     24.168184   19.962436   18.037004 O.3        1 MOL1        -0.5486
     105    H50     24.604518   19.087175   17.965388 H          1 MOL1         0.3769
     106    C31     21.314737   14.110755   20.843201 C.3        1 MOL1         0.2972
     107    H51     20.917630   13.137109   20.528980 H          1 MOL1         0.0751
     108    O26     20.253181   15.035753   21.148984 O.3        1 MOL1        -0.3740
     109    C32     22.251808   13.956551   22.075050 C.3        1 MOL1         0.1003
     110    H52     23.063963   13.280969   21.776675 H          1 MOL1         0.0783
     111    O27     21.569881   13.390638   23.205006 O.3        1 MOL1        -0.5519
     112    H53     20.847631   14.021603   23.453676 H          1 MOL1         0.3769
     113    C33     22.883768   15.314025   22.463964 C.3        1 MOL1         0.1053
     114    H54     22.083818   15.965799   22.840935 H          1 MOL1         0.0783
     115    O28     23.864658   15.112178   23.486361 O.3        1 MOL1        -0.5519
     116    H55     23.444817   14.497459   24.128828 H          1 MOL1         0.3769
     117    C34     23.535914   16.002924   21.240603 C.3        1 MOL1         0.1018
     118    H56     24.453149   15.464103   20.968293 H          1 MOL1         0.0783
     119    C35     22.584092   16.035262   20.017939 C.3        1 MOL1         0.1043
     120    H57     21.757849   16.717601   20.242792 H          1 MOL1         0.0783
     121    O29     22.087701   14.695914   19.773078 O.3        1 MOL1        -0.3740
     122    C36     23.273237   16.524065   18.727369 C.3        1 MOL1         0.0138
     123    H58     23.948039   15.742443   18.353620 H          1 MOL1         0.0794
     124    H59     23.881065   17.404783   18.953893 H          1 MOL1         0.0794
     125    O30     22.294286   16.865409   17.743707 O.3        1 MOL1        -0.5486
     126    H60     21.769211   16.050855   17.584184 H          1 MOL1         0.3769
     127    C1      20.004155   19.094964   23.530430 C.3        1 MOL1        -0.2398
     128    H1      18.989860   18.709790   23.700615 H          1 MOL1         0.0972
     129    H2      20.658910   18.673554   24.303942 H          1 MOL1         0.0972
     130    H3      19.982359   20.184822   23.663242 H          1 MOL1         0.0972
     131    C2      20.512921   18.717356   22.123978 C.3        1 MOL1        -0.1383
     132    H4      20.570268   17.625882   22.036508 H          1 MOL1         0.0961
     133    H5      21.534004   19.098494   21.992551 H          1 MOL1         0.0961
     134    C3      19.601766   19.287667   21.017597 C.3        1 MOL1        -0.1407
     135    H6      18.569116   18.944651   21.168839 H          1 MOL1         0.0961
     136    H7      19.590759   20.380261   21.102086 H          1 MOL1         0.0961
     137    C4      20.079295   18.894477   19.603843 C.3        1 MOL1        -0.1407
     138    H8      19.919922   17.819284   19.443591 H          1 MOL1         0.0961
     139    H9      21.159211   19.077240   19.528850 H          1 MOL1         0.0961
     140    C5      19.340354   19.700566   18.510131 C.3        1 MOL1        -0.1472
     141    H10     18.262024   19.521800   18.587037 H          1 MOL1         0.0961
     142    H11     19.485690   20.771694   18.688992 H          1 MOL1         0.0961
     143    C6      19.800185   19.360019   17.077384 C.3        1 MOL1         0.1190
     144    H12     19.580125   18.306208   16.880348 H          1 MOL1         0.0923
     145    C7      19.026032   20.217297   16.064068 C.3        1 MOL1        -0.2463
     146    H13     19.310783   19.956775   15.037663 H          1 MOL1         0.0972
     147    H14     17.945637   20.055518   16.162486 H          1 MOL1         0.0972
     148    H15     19.228255   21.285560   16.215915 H          1 MOL1         0.0972
     149    N1      21.281992   19.537599   16.891388 N.4        1 MOL1        -0.5974
     150    H16     21.589718   20.464093   17.226355 H          1 MOL1         0.3625
     151    H17     21.815074   18.822244   17.410688 H          1 MOL1         0.3625
     152    H18     21.554509   19.453477   15.910083 H          1 MOL1         0.3625
@<TRIPOS>BOND
    1     1     2    1
    2     1     3    1
    3     1     4    1
    4     4     5    1
    5     4     6    1
    6     6     7    1
    7     4     8    1
    8     8     9    1
    9     8    10    1
   10    10    11    1
   11     8    12    1
   12    12    13    1
   13    12    14    1
   14    14    15    1
   15     1    16    1
   16    14    16    1
   17    14    17    1
   18    17    18    1
   19    17    19    1
   20    17    20    1
   21    20    21    1
   22    22    23    1
   23    22    24    1
   24    22    25    1
   25    25    26    1
   26    25    27    1
   27    27    28    1
   28    25    29    1
   29    29    30    1
   30    29    31    1
   31    31    32    1
   32     3    33    1
   33    29    33    1
   34    33    34    1
   35    33    35    1
   36    35    36    1
   37    22    37    1
   38    35    37    1
   39    35    38    1
   40    38    39    1
   41    38    40    1
   42    38    41    1
   43    41    42    1
   44    43    44    1
   45    43    45    1
   46    43    46    1
   47    46    47    1
   48    46    48    1
   49    48    49    1
   50    46    50    1
   51    50    51    1
   52    50    52    1
   53    52    53    1
   54    24    54    1
   55    50    54    1
   56    54    55    1
   57    54    56    1
   58    56    57    1
   59    43    58    1
   60    56    58    1
   61    56    59    1
   62    59    60    1
   63    59    61    1
   64    59    62    1
   65    62    63    1
   66    64    65    1
   67    64    66    1
   68    64    67    1
   69    67    68    1
   70    67    69    1
   71    69    70    1
   72    67    71    1
   73    71    72    1
   74    71    73    1
   75    73    74    1
   76    45    75    1
   77    71    75    1
   78    75    76    1
   79    75    77    1
   80    77    78    1
   81    64    79    1
   82    77    79    1
   83    77    80    1
   84    80    81    1
   85    80    82    1
   86    80    83    1
   87    83    84    1
   88    85    86    1
   89    85    87    1
   90    85    88    1
   91    88    89    1
   92    88    90    1
   93    90    91    1
   94    88    92    1
   95    92    93    1
   96    92    94    1
   97    94    95    1
   98    66    96    1
   99    92    96    1
  100    96    97    1
  101    96    98    1
  102    98    99    1
  103    85   100    1
  104    98   100    1
  105    98   101    1
  106   101   102    1
  107   101   103    1
  108   101   104    1
  109   104   105    1
  110   106   107    1
  111    12   108    1
  112   106   108    1
  113   106   109    1
  114   109   110    1
  115   109   111    1
  116   111   112    1
  117   109   113    1
  118   113   114    1
  119   113   115    1
  120   115   116    1
  121    87   117    1
  122   113   117    1
  123   117   118    1
  124   117   119    1
  125   119   120    1
  126   106   121    1
  127   119   121    1
  128   119   122    1
  129   122   123    1
  130   122   124    1
  131   122   125    1
  132   125   126    1
  133   127   128    1
  134   127   129    1
  135   127   130    1
  136   127   131    1
  137   131   132    1
  138   131   133    1
  139   131   134    1
  140   134   135    1
  141   134   136    1
  142   134   137    1
  143   137   138    1
  144   137   139    1
  145   137   140    1
  146   140   141    1
  147   140   142    1
  148   140   143    1
  149   143   144    1
  150   143   145    1
  151   145   146    1
  152   145   147    1
  153   145   148    1
  154   143   149    1
  155   149   150    1
  156   149   151    1
  157   149   152    1
@<TRIPOS>SUBSTRUCTURE
       1 MOL1            1 RESIDUE      1      MOL     
       2 MOL1          152 RESIDUE      1      MOL     
@<SCITEGIC>MOL_PROPERTY
VM2 Rank
SciTegic.value.IntegerValue
1

@<SCITEGIC>MOL_PROPERTY
Conf_Id
SciTegic.value.IntegerValue
15512

@<SCITEGIC>MOL_PROPERTY
Probability
SciTegic.value.DoubleValue
2.19

@<SCITEGIC>MOL_PROPERTY
Sum Probability
SciTegic.value.DoubleValue
2.19

@<SCITEGIC>MOL_PROPERTY
Delta G
SciTegic.value.DoubleValue
0.000

@<SCITEGIC>MOL_PROPERTY
G
SciTegic.value.DoubleValue
542.018

@<SCITEGIC>MOL_PROPERTY
E
SciTegic.value.DoubleValue
338.181

@<SCITEGIC>MOL_PROPERTY
-TS
SciTegic.value.DoubleValue
203.837

@<SCITEGIC>MOL_PROPERTY
U+W
SciTegic.value.DoubleValue
204.044

@<SCITEGIC>MOL_PROPERTY
U
SciTegic.value.DoubleValue
263.509

@<SCITEGIC>MOL_PROPERTY
W
SciTegic.value.DoubleValue
-59.465

@<SCITEGIC>MOL_PROPERTY
W(PB)
SciTegic.value.DoubleValue
-65.412

@<SCITEGIC>MOL_PROPERTY
W(SA)
SciTegic.value.DoubleValue
5.947

@<SCITEGIC>MOL_PROPERTY
Valence
SciTegic.value.DoubleValue
148.463

@<SCITEGIC>MOL_PROPERTY
Coulomb
SciTegic.value.DoubleValue
142.927

@<SCITEGIC>MOL_PROPERTY
VdW
SciTegic.value.DoubleValue
-27.881

@<SCITEGIC>MOL_PROPERTY
VdW6
SciTegic.value.DoubleValue
-182.866

@<SCITEGIC>MOL_PROPERTY
VdW12
SciTegic.value.DoubleValue
154.985

@<SCITEGIC>MOL_PROPERTY
Bond
SciTegic.value.DoubleValue
4.201

@<SCITEGIC>MOL_PROPERTY
Angle
SciTegic.value.DoubleValue
10.260

@<SCITEGIC>MOL_PROPERTY
Pdih
SciTegic.value.DoubleValue
134.003

@<SCITEGIC>MOL_PROPERTY
Idih
SciTegic.value.DoubleValue
0.000

@<SCITEGIC>MOL_PROPERTY
Tether
SciTegic.value.DoubleValue
0.000

