@<TRIPOS>MOLECULE
CD_guest-8_vm2_rndm.mol2 : vm2 host+ligand conformer 1
         151         156           2
SMALL
USER_CHARGES
 
@<TRIPOS>ATOM
       1    C1      16.335232   15.301515   20.753924 C.3        1 MOL1         0.2972
       2    H1      15.289402   15.166492   20.449569 H          1 MOL1         0.0751
       3    O1      16.558232   16.607137   21.319903 O.3        1 MOL1        -0.3740
       4    C2      16.737339   14.233668   21.805849 C.3        1 MOL1         0.1003
       5    H2      16.569491   13.248555   21.351515 H          1 MOL1         0.0783
       6    O2      15.944015   14.346294   22.995676 O.3        1 MOL1        -0.5519
       7    H3      16.363771   13.726088   23.633435 H          1 MOL1         0.3769
       8    C3      18.237813   14.339600   22.169936 C.3        1 MOL1         0.1053
       9    H4      18.394462   15.285658   22.706960 H          1 MOL1         0.0783
      10    O3      18.607323   13.235214   23.005475 O.3        1 MOL1        -0.5519
      11    H5      19.564591   13.353920   23.227436 H          1 MOL1         0.3769
      12    C4      19.121516   14.355444   20.899152 C.3        1 MOL1         0.1018
      13    H6      19.125006   13.354995   20.446578 H          1 MOL1         0.0783
      14    C5      18.613017   15.380610   19.853465 C.3        1 MOL1         0.1043
      15    H7      18.771113   16.390919   20.251133 H          1 MOL1         0.0783
      16    O4      17.202912   15.157095   19.609776 O.3        1 MOL1        -0.3740
      17    C6      19.338360   15.275340   18.493443 C.3        1 MOL1         0.0138
      18    H8      20.409799   15.458667   18.639529 H          1 MOL1         0.0794
      19    H9      18.959015   16.063433   17.829607 H          1 MOL1         0.0794
      20    O5      19.134864   13.988738   17.902087 O.3        1 MOL1        -0.5486
      21    H10     18.161609   13.854159   17.875403 H          1 MOL1         0.3769
      22    C7      14.664474   20.274630   21.790413 C.3        1 MOL1         0.2972
      23    H11     13.934653   21.087659   21.889161 H          1 MOL1         0.0751
      24    O6      16.015228   20.771723   21.725895 O.3        1 MOL1        -0.3740
      25    C8      14.543384   19.305543   22.994194 C.3        1 MOL1         0.1003
      26    H12     13.521157   18.905361   22.987398 H          1 MOL1         0.0783
      27    O7      14.773751   19.981029   24.237781 O.3        1 MOL1        -0.5519
      28    H13     14.842163   19.258317   24.901795 H          1 MOL1         0.3769
      29    C9      15.517603   18.113291   22.855415 C.3        1 MOL1         0.1053
      30    H14     16.542450   18.490468   22.969610 H          1 MOL1         0.0783
      31    O8      15.234373   17.147684   23.875369 O.3        1 MOL1        -0.5519
      32    H15     15.667420   16.304768   23.593480 H          1 MOL1         0.3769
      33    C10     15.392329   17.440127   21.467291 C.3        1 MOL1         0.1018
      34    H16     14.465984   16.850323   21.456757 H          1 MOL1         0.0783
      35    C11     15.374847   18.467724   20.299630 C.3        1 MOL1         0.1043
      36    H17     16.380027   18.898569   20.197605 H          1 MOL1         0.0783
      37    O9      14.415597   19.516624   20.587941 O.3        1 MOL1        -0.3740
      38    C12     14.988545   17.851478   18.936582 C.3        1 MOL1         0.0138
      39    H18     15.758700   17.129983   18.635313 H          1 MOL1         0.0794
      40    H19     14.977624   18.648172   18.180704 H          1 MOL1         0.0794
      41    O10     13.710012   17.212523   19.002688 O.3        1 MOL1        -0.5486
      42    H20     13.075545   17.899986   19.304507 H          1 MOL1         0.3769
      43    C13     18.358352   24.155007   21.379575 C.3        1 MOL1         0.2972
      44    H21     18.760919   25.169960   21.271424 H          1 MOL1         0.0751
      45    O11     19.398610   23.156693   21.335484 O.3        1 MOL1        -0.3740
      46    C14     17.597357   24.027874   22.722294 C.3        1 MOL1         0.1003
      47    H22     16.764899   24.743021   22.695754 H          1 MOL1         0.0783
      48    O12     18.442568   24.333669   23.839287 O.3        1 MOL1        -0.5519
      49    H23     17.925563   24.046205   24.625374 H          1 MOL1         0.3769
      50    C15     17.001152   22.611908   22.882586 C.3        1 MOL1         0.1053
      51    H24     17.832834   21.903862   22.995817 H          1 MOL1         0.0783
      52    O13     16.165990   22.576307   24.046119 O.3        1 MOL1        -0.5519
      53    H25     15.785747   21.663715   24.095683 H          1 MOL1         0.3769
      54    C16     16.178581   22.199452   21.636015 C.3        1 MOL1         0.1018
      55    H26     15.217596   22.730379   21.652858 H          1 MOL1         0.0783
      56    C17     16.904525   22.510026   20.297174 C.3        1 MOL1         0.1043
      57    H27     17.727169   21.797897   20.160028 H          1 MOL1         0.0783
      58    O14     17.415021   23.867230   20.325498 O.3        1 MOL1        -0.3740
      59    C18     15.964016   22.393633   19.080303 C.3        1 MOL1         0.0138
      60    H28     15.153784   23.128721   19.175648 H          1 MOL1         0.0794
      61    H29     15.510322   21.394246   19.066236 H          1 MOL1         0.0794
      62    O15     16.698309   22.609760   17.873614 O.3        1 MOL1        -0.5486
      63    H30     17.184711   23.455518   17.997614 H          1 MOL1         0.3769
      64    C19     23.455876   22.606817   20.674485 C.3        1 MOL1         0.2972
      65    H31     24.507551   22.694707   20.373475 H          1 MOL1         0.0751
      66    O16     23.146864   21.268954   21.113787 O.3        1 MOL1        -0.3740
      67    C20     23.115708   23.621018   21.801420 C.3        1 MOL1         0.1003
      68    H32     23.302367   24.624336   21.397910 H          1 MOL1         0.0783
      69    O17     23.960634   23.420034   22.945727 O.3        1 MOL1        -0.5519
      70    H33     23.702332   22.550497   23.341777 H          1 MOL1         0.3769
      71    C21     21.613510   23.539623   22.185146 C.3        1 MOL1         0.1053
      72    H34     21.439339   22.573074   22.678313 H          1 MOL1         0.0783
      73    O18     21.267116   24.611296   23.071225 O.3        1 MOL1        -0.5519
      74    H35     20.333515   24.452841   23.356611 H          1 MOL1         0.3769
      75    C22     20.703014   23.615177   20.931521 C.3        1 MOL1         0.1018
      76    H36     20.680542   24.650267   20.565988 H          1 MOL1         0.0783
      77    C23     21.182622   22.692224   19.781296 C.3        1 MOL1         0.1043
      78    H37     20.995403   21.652216   20.071298 H          1 MOL1         0.0783
      79    O19     22.598518   22.897560   19.550995 O.3        1 MOL1        -0.3740
      80    C24     20.445159   22.943681   18.447914 C.3        1 MOL1         0.0138
      81    H38     19.375107   22.747030   18.589598 H          1 MOL1         0.0794
      82    H39     20.813293   22.226756   17.701818 H          1 MOL1         0.0794
      83    O20     20.645114   24.284737   17.991182 O.3        1 MOL1        -0.5486
      84    H40     21.618347   24.415104   17.949515 H          1 MOL1         0.3769
      85    C25     24.919941   17.715402   22.280873 C.3        1 MOL1         0.2972
      86    H41     25.585994   16.918544   22.635331 H          1 MOL1         0.0751
      87    O21     23.710938   17.182311   21.701484 O.3        1 MOL1        -0.3740
      88    C26     24.540823   18.660210   23.450195 C.3        1 MOL1         0.1003
      89    H42     25.466784   19.125963   23.811377 H          1 MOL1         0.0783
      90    O22     23.952252   17.904686   24.520479 O.3        1 MOL1        -0.5519
      91    H43     23.264573   18.475096   24.951803 H          1 MOL1         0.3769
      92    C27     23.607409   19.794232   22.950850 C.3        1 MOL1         0.1053
      93    H44     22.654397   19.346260   22.645127 H          1 MOL1         0.0783
      94    O23     23.381178   20.750202   23.995778 O.3        1 MOL1        -0.5519
      95    H45     22.719692   20.338471   24.612140 H          1 MOL1         0.3769
      96    C28     24.214755   20.513847   21.717819 C.3        1 MOL1         0.1018
      97    H46     25.032513   21.162178   22.058821 H          1 MOL1         0.0783
      98    C29     24.743987   19.521142   20.644011 C.3        1 MOL1         0.1043
      99    H47     23.880103   19.044064   20.162149 H          1 MOL1         0.0783
     100    O24     25.574629   18.512493   21.271547 O.3        1 MOL1        -0.3740
     101    C30     25.580602   20.192047   19.531901 C.3        1 MOL1         0.0138
     102    H48     24.934175   20.866030   18.954392 H          1 MOL1         0.0794
     103    H49     25.937588   19.415039   18.842685 H          1 MOL1         0.0794
     104    O25     26.686479   20.915726   20.079315 O.3        1 MOL1        -0.5486
     105    H50     27.208171   20.266984   20.602122 H          1 MOL1         0.3769
     106    C31     21.478301   13.775399   21.198921 C.3        1 MOL1         0.2972
     107    H51     21.070920   12.773230   21.015632 H          1 MOL1         0.0751
     108    O26     20.436272   14.767026   21.316133 O.3        1 MOL1        -0.3740
     109    C32     22.312083   13.775333   22.501987 C.3        1 MOL1         0.1003
     110    H52     23.148392   13.078858   22.358081 H          1 MOL1         0.0783
     111    O27     21.523805   13.343681   23.620065 O.3        1 MOL1        -0.5519
     112    H53     22.083147   13.535231   24.406151 H          1 MOL1         0.3769
     113    C33     22.901076   15.177141   22.779243 C.3        1 MOL1         0.1053
     114    H54     22.065165   15.846026   23.021444 H          1 MOL1         0.0783
     115    O28     23.794346   15.096720   23.895611 O.3        1 MOL1        -0.5519
     116    H55     23.923097   16.026012   24.210371 H          1 MOL1         0.3769
     117    C34     23.637327   15.753254   21.537519 C.3        1 MOL1         0.1018
     118    H56     24.634358   15.300977   21.453353 H          1 MOL1         0.0783
     119    C35     22.865280   15.524754   20.208733 C.3        1 MOL1         0.1043
     120    H57     22.025159   16.228586   20.177724 H          1 MOL1         0.0783
     121    O29     22.361875   14.168430   20.129908 O.3        1 MOL1        -0.3740
     122    C36     23.735119   15.778648   18.957873 C.3        1 MOL1         0.0138
     123    H58     24.112136   16.809747   18.986223 H          1 MOL1         0.0794
     124    H59     23.104545   15.681968   18.063893 H          1 MOL1         0.0794
     125    O30     24.826141   14.855609   18.896224 O.3        1 MOL1        -0.5486
     126    H60     24.427042   13.959370   18.961479 H          1 MOL1         0.3769
     127    C1      20.606874   18.473958   25.253720 C.2        1 MOL1         0.6168
     128    O1      21.617963   19.129064   25.433611 O.co2      1 MOL1        -0.6703
     129    O2      19.923409   18.021653   26.150564 O.co2      1 MOL1        -0.6703
     130    C2      20.169528   18.221048   23.814240 C.3        1 MOL1        -0.1963
     131    H1      19.419681   17.421005   23.812272 H          1 MOL1         0.0750
     132    H2      21.039885   17.850974   23.265195 H          1 MOL1         0.0750
     133    C3      19.596274   19.491450   23.138377 C.3        1 MOL1        -0.1860
     134    H3      18.733193   19.838054   23.722491 H          1 MOL1         0.0752
     135    H4      20.340683   20.298524   23.178373 H          1 MOL1         0.0752
     136    C4      19.154934   19.273456   21.674290 C.3        1 MOL1        -0.1858
     137    H5      18.683997   20.198503   21.326077 H          1 MOL1         0.0752
     138    H6      18.388641   18.492220   21.627043 H          1 MOL1         0.0752
     139    C5      20.315402   18.911482   20.724423 C.3        1 MOL1        -0.1858
     140    H7      21.160953   19.581173   20.912913 H          1 MOL1         0.0752
     141    H8      20.664699   17.893800   20.937035 H          1 MOL1         0.0752
     142    C6      19.896053   19.026442   19.243194 C.3        1 MOL1        -0.1858
     143    H9      19.497630   20.031323   19.050884 H          1 MOL1         0.0752
     144    H10     19.081225   18.323351   19.030507 H          1 MOL1         0.0752
     145    C7      21.083193   18.762101   18.295490 C.3        1 MOL1        -0.1834
     146    H11     21.888368   19.480309   18.504251 H          1 MOL1         0.0752
     147    H12     21.490678   17.761253   18.481199 H          1 MOL1         0.0752
     148    C8      20.664629   18.876630   16.816993 C.3        1 MOL1        -0.2849
     149    H13     20.277705   19.879713   16.595460 H          1 MOL1         0.0764
     150    H14     21.521454   18.690050   16.156988 H          1 MOL1         0.0764
     151    H15     19.882377   18.146695   16.572261 H          1 MOL1         0.0764
@<TRIPOS>BOND
    1     1     2    1
    2     1     3    1
    3     1     4    1
    4     4     5    1
    5     4     6    1
    6     6     7    1
    7     4     8    1
    8     8     9    1
    9     8    10    1
   10    10    11    1
   11     8    12    1
   12    12    13    1
   13    12    14    1
   14    14    15    1
   15     1    16    1
   16    14    16    1
   17    14    17    1
   18    17    18    1
   19    17    19    1
   20    17    20    1
   21    20    21    1
   22    22    23    1
   23    22    24    1
   24    22    25    1
   25    25    26    1
   26    25    27    1
   27    27    28    1
   28    25    29    1
   29    29    30    1
   30    29    31    1
   31    31    32    1
   32     3    33    1
   33    29    33    1
   34    33    34    1
   35    33    35    1
   36    35    36    1
   37    22    37    1
   38    35    37    1
   39    35    38    1
   40    38    39    1
   41    38    40    1
   42    38    41    1
   43    41    42    1
   44    43    44    1
   45    43    45    1
   46    43    46    1
   47    46    47    1
   48    46    48    1
   49    48    49    1
   50    46    50    1
   51    50    51    1
   52    50    52    1
   53    52    53    1
   54    24    54    1
   55    50    54    1
   56    54    55    1
   57    54    56    1
   58    56    57    1
   59    43    58    1
   60    56    58    1
   61    56    59    1
   62    59    60    1
   63    59    61    1
   64    59    62    1
   65    62    63    1
   66    64    65    1
   67    64    66    1
   68    64    67    1
   69    67    68    1
   70    67    69    1
   71    69    70    1
   72    67    71    1
   73    71    72    1
   74    71    73    1
   75    73    74    1
   76    45    75    1
   77    71    75    1
   78    75    76    1
   79    75    77    1
   80    77    78    1
   81    64    79    1
   82    77    79    1
   83    77    80    1
   84    80    81    1
   85    80    82    1
   86    80    83    1
   87    83    84    1
   88    85    86    1
   89    85    87    1
   90    85    88    1
   91    88    89    1
   92    88    90    1
   93    90    91    1
   94    88    92    1
   95    92    93    1
   96    92    94    1
   97    94    95    1
   98    66    96    1
   99    92    96    1
  100    96    97    1
  101    96    98    1
  102    98    99    1
  103    85   100    1
  104    98   100    1
  105    98   101    1
  106   101   102    1
  107   101   103    1
  108   101   104    1
  109   104   105    1
  110   106   107    1
  111    12   108    1
  112   106   108    1
  113   106   109    1
  114   109   110    1
  115   109   111    1
  116   111   112    1
  117   109   113    1
  118   113   114    1
  119   113   115    1
  120   115   116    1
  121    87   117    1
  122   113   117    1
  123   117   118    1
  124   117   119    1
  125   119   120    1
  126   106   121    1
  127   119   121    1
  128   119   122    1
  129   122   123    1
  130   122   124    1
  131   122   125    1
  132   125   126    1
  133   127   128    1
  134   127   129    2
  135   127   130    1
  136   130   131    1
  137   130   132    1
  138   130   133    1
  139   133   134    1
  140   133   135    1
  141   133   136    1
  142   136   137    1
  143   136   138    1
  144   136   139    1
  145   139   140    1
  146   139   141    1
  147   139   142    1
  148   142   143    1
  149   142   144    1
  150   142   145    1
  151   145   146    1
  152   145   147    1
  153   145   148    1
  154   148   149    1
  155   148   150    1
  156   148   151    1
@<TRIPOS>SUBSTRUCTURE
       1 MOL1            1 RESIDUE      1      MOL     
       2 MOL1          151 RESIDUE      1      MOL     
@<SCITEGIC>MOL_PROPERTY
VM2 Rank
SciTegic.value.IntegerValue
1

@<SCITEGIC>MOL_PROPERTY
Conf_Id
SciTegic.value.IntegerValue
24479

@<SCITEGIC>MOL_PROPERTY
Probability
SciTegic.value.DoubleValue
3.99

@<SCITEGIC>MOL_PROPERTY
Sum Probability
SciTegic.value.DoubleValue
3.99

@<SCITEGIC>MOL_PROPERTY
Delta G
SciTegic.value.DoubleValue
0.000

@<SCITEGIC>MOL_PROPERTY
G
SciTegic.value.DoubleValue
504.819

@<SCITEGIC>MOL_PROPERTY
E
SciTegic.value.DoubleValue
307.411

@<SCITEGIC>MOL_PROPERTY
-TS
SciTegic.value.DoubleValue
197.408

@<SCITEGIC>MOL_PROPERTY
U+W
SciTegic.value.DoubleValue
174.169

@<SCITEGIC>MOL_PROPERTY
U
SciTegic.value.DoubleValue
246.196

@<SCITEGIC>MOL_PROPERTY
W
SciTegic.value.DoubleValue
-72.027

@<SCITEGIC>MOL_PROPERTY
W(PB)
SciTegic.value.DoubleValue
-78.240

@<SCITEGIC>MOL_PROPERTY
W(SA)
SciTegic.value.DoubleValue
6.213

@<SCITEGIC>MOL_PROPERTY
Valence
SciTegic.value.DoubleValue
151.526

@<SCITEGIC>MOL_PROPERTY
Coulomb
SciTegic.value.DoubleValue
122.837

@<SCITEGIC>MOL_PROPERTY
VdW
SciTegic.value.DoubleValue
-28.167

@<SCITEGIC>MOL_PROPERTY
VdW6
SciTegic.value.DoubleValue
-185.283

@<SCITEGIC>MOL_PROPERTY
VdW12
SciTegic.value.DoubleValue
157.115

@<SCITEGIC>MOL_PROPERTY
Bond
SciTegic.value.DoubleValue
4.475

@<SCITEGIC>MOL_PROPERTY
Angle
SciTegic.value.DoubleValue
11.119

@<SCITEGIC>MOL_PROPERTY
Pdih
SciTegic.value.DoubleValue
135.932

@<SCITEGIC>MOL_PROPERTY
Idih
SciTegic.value.DoubleValue
0.000

@<SCITEGIC>MOL_PROPERTY
Tether
SciTegic.value.DoubleValue
0.000

@<TRIPOS>MOLECULE
CD_guest-8_vm2_rndm.mol2 : vm2 host+ligand conformer 2
         151         156           2
SMALL
USER_CHARGES
 
@<TRIPOS>ATOM
       1    C1      16.321393   15.212627   21.587165 C.3        1 MOL1         0.2972
       2    H1      15.240512   15.073226   21.715775 H          1 MOL1         0.0751
       3    O1      16.644215   16.576967   21.247360 O.3        1 MOL1        -0.3740
       4    C2      17.069014   14.816169   22.885142 C.3        1 MOL1         0.1003
       5    H2      16.861211   13.753603   23.066760 H          1 MOL1         0.0783
       6    O2      16.621749   15.575057   24.015675 O.3        1 MOL1        -0.5519
       7    H3      17.303149   15.407699   24.705891 H          1 MOL1         0.3769
       8    C3      18.596407   14.972051   22.715825 C.3        1 MOL1         0.1053
       9    H4      18.827225   16.038675   22.599577 H          1 MOL1         0.0783
      10    O3      19.245570   14.449621   23.880443 O.3        1 MOL1        -0.5519
      11    H5      20.162495   14.201166   23.610398 H          1 MOL1         0.3769
      12    C4      19.101620   14.233477   21.452515 C.3        1 MOL1         0.1018
      13    H6      19.121077   13.155072   21.659974 H          1 MOL1         0.0783
      14    C5      18.221324   14.522333   20.203554 C.3        1 MOL1         0.1043
      15    H7      18.409052   15.555790   19.883111 H          1 MOL1         0.0783
      16    O4      16.817483   14.361248   20.531360 O.3        1 MOL1        -0.3740
      17    C6      18.535580   13.597231   19.007024 C.3        1 MOL1         0.0138
      18    H8      19.565706   13.780458   18.673409 H          1 MOL1         0.0794
      19    H9      17.870508   13.860311   18.173544 H          1 MOL1         0.0794
      20    O5      18.368777   12.221004   19.360813 O.3        1 MOL1        -0.5486
      21    H10     17.442620   12.129738   19.677774 H          1 MOL1         0.3769
      22    C7      14.792625   20.300894   20.906379 C.3        1 MOL1         0.2972
      23    H11     14.104259   21.123347   20.673301 H          1 MOL1         0.0751
      24    O6      16.054222   20.785027   21.401008 O.3        1 MOL1        -0.3740
      25    C8      14.184862   19.368977   21.984863 C.3        1 MOL1         0.1003
      26    H12     13.236533   18.982990   21.588986 H          1 MOL1         0.0783
      27    O7      13.935218   20.082633   23.204971 O.3        1 MOL1        -0.5519
      28    H13     13.687066   19.385587   23.852939 H          1 MOL1         0.3769
      29    C9      15.111280   18.161376   22.269277 C.3        1 MOL1         0.1053
      30    H14     16.022022   18.538500   22.755718 H          1 MOL1         0.0783
      31    O8      14.432609   17.254331   23.145825 O.3        1 MOL1        -0.5519
      32    H15     15.130236   16.657572   23.515272 H          1 MOL1         0.3769
      33    C10     15.529172   17.443711   20.956211 C.3        1 MOL1         0.1018
      34    H16     14.677217   16.880483   20.552724 H          1 MOL1         0.0783
      35    C11     16.017258   18.447735   19.878867 C.3        1 MOL1         0.1043
      36    H17     16.978947   18.864746   20.201513 H          1 MOL1         0.0783
      37    O9      15.046123   19.511460   19.725100 O.3        1 MOL1        -0.3740
      38    C12     16.224448   17.797011   18.493160 C.3        1 MOL1         0.0138
      39    H18     16.961491   16.988226   18.581900 H          1 MOL1         0.0794
      40    H19     16.642157   18.548646   17.810040 H          1 MOL1         0.0794
      41    O10     14.992017   17.286474   17.976514 O.3        1 MOL1        -0.5486
      42    H20     14.352985   18.032511   18.015249 H          1 MOL1         0.3769
      43    C13     18.384799   24.159596   21.690529 C.3        1 MOL1         0.2972
      44    H21     18.804211   25.170976   21.763392 H          1 MOL1         0.0751
      45    O11     19.415861   23.162612   21.540155 O.3        1 MOL1        -0.3740
      46    C14     17.559719   23.840811   22.961241 C.3        1 MOL1         0.1003
      47    H22     16.738966   24.568089   23.011329 H          1 MOL1         0.0783
      48    O12     18.364697   23.954866   24.143137 O.3        1 MOL1        -0.5519
      49    H23     17.815789   23.559585   24.857013 H          1 MOL1         0.3769
      50    C15     16.939014   22.428435   22.873434 C.3        1 MOL1         0.1053
      51    H24     17.756174   21.699342   22.935991 H          1 MOL1         0.0783
      52    O13     16.027293   22.228561   23.960613 O.3        1 MOL1        -0.5519
      53    H25     15.502483   21.420686   23.739515 H          1 MOL1         0.3769
      54    C16     16.188582   22.210660   21.535764 C.3        1 MOL1         0.1018
      55    H26     15.213081   22.710631   21.602055 H          1 MOL1         0.0783
      56    C17     16.971562   22.731353   20.296815 C.3        1 MOL1         0.1043
      57    H27     17.798923   22.037141   20.098320 H          1 MOL1         0.0783
      58    O14     17.496278   24.056839   20.559053 O.3        1 MOL1        -0.3740
      59    C18     16.115949   22.820203   19.013334 C.3        1 MOL1         0.0138
      60    H28     15.800870   21.811550   18.717607 H          1 MOL1         0.0794
      61    H29     16.740293   23.215998   18.201099 H          1 MOL1         0.0794
      62    O15     14.972879   23.657264   19.211765 O.3        1 MOL1        -0.5486
      63    H30     15.319828   24.531420   19.498076 H          1 MOL1         0.3769
      64    C19     23.477742   22.684572   20.881506 C.3        1 MOL1         0.2972
      65    H31     24.533014   22.795221   20.600751 H          1 MOL1         0.0751
      66    O16     23.164195   21.318839   21.220519 O.3        1 MOL1        -0.3740
      67    C20     23.119876   23.612219   22.075065 C.3        1 MOL1         0.1003
      68    H32     23.289829   24.644881   21.744868 H          1 MOL1         0.0783
      69    O17     23.968124   23.344010   23.202451 O.3        1 MOL1        -0.5519
      70    H33     23.751009   22.430533   23.515648 H          1 MOL1         0.3769
      71    C21     21.616832   23.474547   22.439868 C.3        1 MOL1         0.1053
      72    H34     21.453481   22.462267   22.835195 H          1 MOL1         0.0783
      73    O18     21.237710   24.447267   23.422357 O.3        1 MOL1        -0.5519
      74    H35     20.312369   24.227558   23.693199 H          1 MOL1         0.3769
      75    C22     20.720858   23.657296   21.187145 C.3        1 MOL1         0.1018
      76    H36     20.697126   24.720406   20.913091 H          1 MOL1         0.0783
      77    C23     21.214747   22.840990   19.963878 C.3        1 MOL1         0.1043
      78    H37     21.015736   21.779838   20.152211 H          1 MOL1         0.0783
      79    O19     22.635048   23.056699   19.771867 O.3        1 MOL1        -0.3740
      80    C24     20.505190   23.225317   18.646910 C.3        1 MOL1         0.0138
      81    H38     19.426370   23.059904   18.756419 H          1 MOL1         0.0794
      82    H39     20.860066   22.558852   17.849292 H          1 MOL1         0.0794
      83    O20     20.761824   24.590392   18.304474 O.3        1 MOL1        -0.5486
      84    H40     21.739827   24.690081   18.305631 H          1 MOL1         0.3769
      85    C25     24.931847   17.662914   22.025918 C.3        1 MOL1         0.2972
      86    H41     25.605298   16.836193   22.285191 H          1 MOL1         0.0751
      87    O21     23.690664   17.182184   21.467777 O.3        1 MOL1        -0.3740
      88    C26     24.624143   18.517315   23.283286 C.3        1 MOL1         0.1003
      89    H42     25.575583   18.934072   23.638097 H          1 MOL1         0.0783
      90    O22     24.065781   17.687269   24.314565 O.3        1 MOL1        -0.5519
      91    H43     23.501741   18.259513   24.896193 H          1 MOL1         0.3769
      92    C27     23.695209   19.707060   22.924568 C.3        1 MOL1         0.1053
      93    H44     22.712369   19.304572   22.651920 H          1 MOL1         0.0783
      94    O23     23.568615   20.593285   24.044748 O.3        1 MOL1        -0.5519
      95    H45     22.982305   20.140673   24.706199 H          1 MOL1         0.3769
      96    C28     24.246384   20.505333   21.713203 C.3        1 MOL1         0.1018
      97    H46     25.091575   21.116854   22.056080 H          1 MOL1         0.0783
      98    C29     24.701131   19.589186   20.542535 C.3        1 MOL1         0.1043
      99    H47     23.805318   19.160210   20.073994 H          1 MOL1         0.0783
     100    O24     25.547381   18.527334   21.048302 O.3        1 MOL1        -0.3740
     101    C30     25.488722   20.332641   19.440747 C.3        1 MOL1         0.0138
     102    H48     24.825275   21.060545   18.955214 H          1 MOL1         0.0794
     103    H49     25.791707   19.607049   18.674007 H          1 MOL1         0.0794
     104    O25     26.637211   20.993353   19.980206 O.3        1 MOL1        -0.5486
     105    H50     27.171939   20.297355   20.422990 H          1 MOL1         0.3769
     106    C31     21.445048   13.786348   20.877647 C.3        1 MOL1         0.2972
     107    H51     21.022573   12.804980   20.626066 H          1 MOL1         0.0751
     108    O26     20.415475   14.752913   21.174688 O.3        1 MOL1        -0.3740
     109    C32     22.409579   13.687610   22.086083 C.3        1 MOL1         0.1003
     110    H52     23.243872   13.039483   21.787393 H          1 MOL1         0.0783
     111    O27     21.766944   13.124253   23.235893 O.3        1 MOL1        -0.5519
     112    H53     22.430577   13.209225   23.957439 H          1 MOL1         0.3769
     113    C33     22.988694   15.078589   22.435553 C.3        1 MOL1         0.1053
     114    H54     22.164164   15.706752   22.800328 H          1 MOL1         0.0783
     115    O28     23.973738   14.930783   23.464587 O.3        1 MOL1        -0.5519
     116    H55     24.090447   15.830986   23.858961 H          1 MOL1         0.3769
     117    C34     23.606093   15.770739   21.188815 C.3        1 MOL1         0.1018
     118    H56     24.594210   15.340539   20.978346 H          1 MOL1         0.0783
     119    C35     22.719937   15.639675   19.918211 C.3        1 MOL1         0.1043
     120    H57     21.872433   16.329536   20.016035 H          1 MOL1         0.0783
     121    O29     22.221771   14.286891   19.771274 O.3        1 MOL1        -0.3740
     122    C36     23.481207   16.000673   18.623107 C.3        1 MOL1         0.0138
     123    H58     23.867583   17.025175   18.707367 H          1 MOL1         0.0794
     124    H59     22.775174   15.982042   17.782066 H          1 MOL1         0.0794
     125    O30     24.556682   15.086891   18.388355 O.3        1 MOL1        -0.5486
     126    H60     24.159078   14.188095   18.416418 H          1 MOL1         0.3769
     127    C1      20.880007   18.519266   25.598869 C.2        1 MOL1         0.6168
     128    O1      22.000752   18.987763   25.680410 O.co2      1 MOL1        -0.6703
     129    O2      20.161058   18.311727   26.556227 O.co2      1 MOL1        -0.6703
     130    C2      20.341450   18.203335   24.207531 C.3        1 MOL1        -0.1963
     131    H1      19.609220   17.394409   24.305901 H          1 MOL1         0.0750
     132    H2      21.170063   17.818110   23.604708 H          1 MOL1         0.0750
     133    C3      19.686377   19.433670   23.529086 C.3        1 MOL1        -0.1860
     134    H3      18.835925   19.757989   24.144244 H          1 MOL1         0.0752
     135    H4      20.395674   20.272576   23.517825 H          1 MOL1         0.0752
     136    C4      19.188085   19.156802   22.092002 C.3        1 MOL1        -0.1858
     137    H5      18.573064   20.005426   21.773564 H          1 MOL1         0.0752
     138    H6      18.533858   18.277117   22.084342 H          1 MOL1         0.0752
     139    C5      20.333110   18.979953   21.072527 C.3        1 MOL1        -0.1858
     140    H7      21.036598   19.810734   21.187087 H          1 MOL1         0.0752
     141    H8      20.889828   18.058184   21.283161 H          1 MOL1         0.0752
     142    C6      19.809335   18.956897   19.621009 C.3        1 MOL1        -0.1858
     143    H9      19.134928   19.808548   19.459956 H          1 MOL1         0.0752
     144    H10     19.221255   18.043424   19.462392 H          1 MOL1         0.0752
     145    C7      20.955844   19.028790   18.592214 C.3        1 MOL1        -0.1834
     146    H11     21.539144   19.946505   18.746258 H          1 MOL1         0.0752
     147    H12     21.643751   18.190880   18.744630 H          1 MOL1         0.0752
     148    C8      20.420904   18.997593   17.147491 C.3        1 MOL1        -0.2849
     149    H13     19.752869   19.847790   16.958240 H          1 MOL1         0.0764
     150    H14     21.247997   19.049070   16.427865 H          1 MOL1         0.0764
     151    H15     19.861645   18.072514   16.956511 H          1 MOL1         0.0764
@<TRIPOS>BOND
    1     1     2    1
    2     1     3    1
    3     1     4    1
    4     4     5    1
    5     4     6    1
    6     6     7    1
    7     4     8    1
    8     8     9    1
    9     8    10    1
   10    10    11    1
   11     8    12    1
   12    12    13    1
   13    12    14    1
   14    14    15    1
   15     1    16    1
   16    14    16    1
   17    14    17    1
   18    17    18    1
   19    17    19    1
   20    17    20    1
   21    20    21    1
   22    22    23    1
   23    22    24    1
   24    22    25    1
   25    25    26    1
   26    25    27    1
   27    27    28    1
   28    25    29    1
   29    29    30    1
   30    29    31    1
   31    31    32    1
   32     3    33    1
   33    29    33    1
   34    33    34    1
   35    33    35    1
   36    35    36    1
   37    22    37    1
   38    35    37    1
   39    35    38    1
   40    38    39    1
   41    38    40    1
   42    38    41    1
   43    41    42    1
   44    43    44    1
   45    43    45    1
   46    43    46    1
   47    46    47    1
   48    46    48    1
   49    48    49    1
   50    46    50    1
   51    50    51    1
   52    50    52    1
   53    52    53    1
   54    24    54    1
   55    50    54    1
   56    54    55    1
   57    54    56    1
   58    56    57    1
   59    43    58    1
   60    56    58    1
   61    56    59    1
   62    59    60    1
   63    59    61    1
   64    59    62    1
   65    62    63    1
   66    64    65    1
   67    64    66    1
   68    64    67    1
   69    67    68    1
   70    67    69    1
   71    69    70    1
   72    67    71    1
   73    71    72    1
   74    71    73    1
   75    73    74    1
   76    45    75    1
   77    71    75    1
   78    75    76    1
   79    75    77    1
   80    77    78    1
   81    64    79    1
   82    77    79    1
   83    77    80    1
   84    80    81    1
   85    80    82    1
   86    80    83    1
   87    83    84    1
   88    85    86    1
   89    85    87    1
   90    85    88    1
   91    88    89    1
   92    88    90    1
   93    90    91    1
   94    88    92    1
   95    92    93    1
   96    92    94    1
   97    94    95    1
   98    66    96    1
   99    92    96    1
  100    96    97    1
  101    96    98    1
  102    98    99    1
  103    85   100    1
  104    98   100    1
  105    98   101    1
  106   101   102    1
  107   101   103    1
  108   101   104    1
  109   104   105    1
  110   106   107    1
  111    12   108    1
  112   106   108    1
  113   106   109    1
  114   109   110    1
  115   109   111    1
  116   111   112    1
  117   109   113    1
  118   113   114    1
  119   113   115    1
  120   115   116    1
  121    87   117    1
  122   113   117    1
  123   117   118    1
  124   117   119    1
  125   119   120    1
  126   106   121    1
  127   119   121    1
  128   119   122    1
  129   122   123    1
  130   122   124    1
  131   122   125    1
  132   125   126    1
  133   127   128    1
  134   127   129    2
  135   127   130    1
  136   130   131    1
  137   130   132    1
  138   130   133    1
  139   133   134    1
  140   133   135    1
  141   133   136    1
  142   136   137    1
  143   136   138    1
  144   136   139    1
  145   139   140    1
  146   139   141    1
  147   139   142    1
  148   142   143    1
  149   142   144    1
  150   142   145    1
  151   145   146    1
  152   145   147    1
  153   145   148    1
  154   148   149    1
  155   148   150    1
  156   148   151    1
@<TRIPOS>SUBSTRUCTURE
       1 MOL1            1 RESIDUE      1      MOL     
       2 MOL1          151 RESIDUE      1      MOL     
@<SCITEGIC>MOL_PROPERTY
VM2 Rank
SciTegic.value.IntegerValue
2

@<SCITEGIC>MOL_PROPERTY
Conf_Id
SciTegic.value.IntegerValue
24465

@<SCITEGIC>MOL_PROPERTY
Probability
SciTegic.value.DoubleValue
3.91

@<SCITEGIC>MOL_PROPERTY
Sum Probability
SciTegic.value.DoubleValue
7.91

@<SCITEGIC>MOL_PROPERTY
Delta G
SciTegic.value.DoubleValue
0.012

@<SCITEGIC>MOL_PROPERTY
G
SciTegic.value.DoubleValue
504.831

@<SCITEGIC>MOL_PROPERTY
E
SciTegic.value.DoubleValue
307.991

@<SCITEGIC>MOL_PROPERTY
-TS
SciTegic.value.DoubleValue
196.840

@<SCITEGIC>MOL_PROPERTY
U+W
SciTegic.value.DoubleValue
174.749

@<SCITEGIC>MOL_PROPERTY
U
SciTegic.value.DoubleValue
246.738

@<SCITEGIC>MOL_PROPERTY
W
SciTegic.value.DoubleValue
-71.989

@<SCITEGIC>MOL_PROPERTY
W(PB)
SciTegic.value.DoubleValue
-78.180

@<SCITEGIC>MOL_PROPERTY
W(SA)
SciTegic.value.DoubleValue
6.191

@<SCITEGIC>MOL_PROPERTY
Valence
SciTegic.value.DoubleValue
150.379

@<SCITEGIC>MOL_PROPERTY
Coulomb
SciTegic.value.DoubleValue
122.882

@<SCITEGIC>MOL_PROPERTY
VdW
SciTegic.value.DoubleValue
-26.523

@<SCITEGIC>MOL_PROPERTY
VdW6
SciTegic.value.DoubleValue
-184.439

@<SCITEGIC>MOL_PROPERTY
VdW12
SciTegic.value.DoubleValue
157.916

@<SCITEGIC>MOL_PROPERTY
Bond
SciTegic.value.DoubleValue
4.529

@<SCITEGIC>MOL_PROPERTY
Angle
SciTegic.value.DoubleValue
11.493

@<SCITEGIC>MOL_PROPERTY
Pdih
SciTegic.value.DoubleValue
134.356

@<SCITEGIC>MOL_PROPERTY
Idih
SciTegic.value.DoubleValue
0.001

@<SCITEGIC>MOL_PROPERTY
Tether
SciTegic.value.DoubleValue
0.000

@<TRIPOS>MOLECULE
CD_guest-8_vm2_rndm.mol2 : vm2 host+ligand conformer 3
         151         156           2
SMALL
USER_CHARGES
 
@<TRIPOS>ATOM
       1    C1      16.212604   15.052511   21.279334 C.3        1 MOL1         0.2972
       2    H1      15.128620   14.898514   21.207866 H          1 MOL1         0.0751
       3    O1      16.553429   16.452895   21.305818 O.3        1 MOL1        -0.3740
       4    C2      16.756950   14.379150   22.563935 C.3        1 MOL1         0.1003
       5    H2      16.540641   13.305709   22.486008 H          1 MOL1         0.0783
       6    O2      16.122245   14.901410   23.739046 O.3        1 MOL1        -0.5519
       7    H3      16.655602   14.546692   24.485672 H          1 MOL1         0.3769
       8    C3      18.289589   14.545791   22.672828 C.3        1 MOL1         0.1053
       9    H4      18.507572   15.606625   22.851577 H          1 MOL1         0.0783
      10    O3      18.777017   13.757897   23.765770 O.3        1 MOL1        -0.5519
      11    H5      19.763994   13.756016   23.697198 H          1 MOL1         0.3769
      12    C4      19.001223   14.114515   21.366776 C.3        1 MOL1         0.1018
      13    H6      19.020353   13.017371   21.327736 H          1 MOL1         0.0783
      14    C5      18.316814   14.672466   20.087964 C.3        1 MOL1         0.1043
      15    H7      18.524075   15.748870   20.025894 H          1 MOL1         0.0783
      16    O4      16.885494   14.450778   20.153443 O.3        1 MOL1        -0.3740
      17    C6      18.830067   14.019133   18.785747 C.3        1 MOL1         0.0138
      18    H8      19.899308   14.238561   18.669429 H          1 MOL1         0.0794
      19    H9      18.308487   14.474945   17.933552 H          1 MOL1         0.0794
      20    O5      18.614136   12.604864   18.800125 O.3        1 MOL1        -0.5486
      21    H10     17.651405   12.477629   18.953521 H          1 MOL1         0.3769
      22    C7      14.927489   20.260181   20.867062 C.3        1 MOL1         0.2972
      23    H11     14.278562   21.111650   20.624830 H          1 MOL1         0.0751
      24    O6      16.236653   20.695122   21.280221 O.3        1 MOL1        -0.3740
      25    C8      14.303903   19.396321   21.995669 C.3        1 MOL1         0.1003
      26    H12     13.323868   19.053532   21.639118 H          1 MOL1         0.0783
      27    O7      14.128403   20.149596   23.203049 O.3        1 MOL1        -0.5519
      28    H13     13.837398   19.486973   23.869378 H          1 MOL1         0.3769
      29    C9      15.167088   18.145659   22.286378 C.3        1 MOL1         0.1053
      30    H14     16.115011   18.478861   22.731708 H          1 MOL1         0.0783
      31    O8      14.471718   17.290573   23.201984 O.3        1 MOL1        -0.5519
      32    H15     15.077082   16.531755   23.396179 H          1 MOL1         0.3769
      33    C10     15.491872   17.371014   20.985294 C.3        1 MOL1         0.1018
      34    H16     14.588751   16.853812   20.635218 H          1 MOL1         0.0783
      35    C11     16.004603   18.306065   19.858992 C.3        1 MOL1         0.1043
      36    H17     17.001072   18.671847   20.135137 H          1 MOL1         0.0783
      37    O9      15.093000   19.421935   19.703986 O.3        1 MOL1        -0.3740
      38    C12     16.119265   17.601954   18.489048 C.3        1 MOL1         0.0138
      39    H18     16.816765   16.758979   18.574315 H          1 MOL1         0.0794
      40    H19     16.545451   18.308845   17.764607 H          1 MOL1         0.0794
      41    O10     14.841324   17.140966   18.040705 O.3        1 MOL1        -0.5486
      42    H20     14.246541   17.923171   18.067865 H          1 MOL1         0.3769
      43    C13     18.504275   24.086638   21.846174 C.3        1 MOL1         0.2972
      44    H21     18.911086   25.088933   22.031243 H          1 MOL1         0.0751
      45    O11     19.518716   23.171858   21.388991 O.3        1 MOL1        -0.3740
      46    C14     17.870447   23.517339   23.138015 C.3        1 MOL1         0.1003
      47    H22     17.037757   24.177253   23.414132 H          1 MOL1         0.0783
      48    O12     18.816986   23.480056   24.214942 O.3        1 MOL1        -0.5519
      49    H23     18.388614   22.918322   24.899502 H          1 MOL1         0.3769
      50    C15     17.293924   22.105998   22.884720 C.3        1 MOL1         0.1053
      51    H24     18.131310   21.423924   22.686683 H          1 MOL1         0.0783
      52    O13     16.567871   21.676458   24.042194 O.3        1 MOL1        -0.5519
      53    H25     15.922602   20.996092   23.732488 H          1 MOL1         0.3769
      54    C16     16.358649   22.081112   21.651023 C.3        1 MOL1         0.1018
      55    H26     15.391140   22.514069   21.939227 H          1 MOL1         0.0783
      56    C17     16.944999   22.844287   20.427728 C.3        1 MOL1         0.1043
      57    H27     17.755449   22.236888   20.003390 H          1 MOL1         0.0783
      58    O14     17.466859   24.132212   20.843541 O.3        1 MOL1        -0.3740
      59    C18     15.918425   23.097859   19.301294 C.3        1 MOL1         0.0138
      60    H28     15.607983   22.135198   18.874294 H          1 MOL1         0.0794
      61    H29     16.408950   23.665520   18.499165 H          1 MOL1         0.0794
      62    O15     14.779566   23.812591   19.789763 O.3        1 MOL1        -0.5486
      63    H30     15.123852   24.649761   20.173308 H          1 MOL1         0.3769
      64    C19     23.539156   22.780488   20.663637 C.3        1 MOL1         0.2972
      65    H31     24.591704   22.859671   20.362605 H          1 MOL1         0.0751
      66    O16     23.197225   21.427357   21.036270 O.3        1 MOL1        -0.3740
      67    C20     23.215245   23.753192   21.830115 C.3        1 MOL1         0.1003
      68    H32     23.355440   24.772932   21.449446 H          1 MOL1         0.0783
      69    O17     24.109720   23.551223   22.934407 O.3        1 MOL1        -0.5519
      70    H33     23.879001   22.674689   23.330972 H          1 MOL1         0.3769
      71    C21     21.727716   23.606639   22.250067 C.3        1 MOL1         0.1053
      72    H34     21.592924   22.600841   22.671626 H          1 MOL1         0.0783
      73    O18     21.374539   24.588925   23.231480 O.3        1 MOL1        -0.5519
      74    H35     20.541658   24.265098   23.654658 H          1 MOL1         0.3769
      75    C22     20.784558   23.747964   21.022911 C.3        1 MOL1         0.1018
      76    H36     20.687386   24.807024   20.749285 H          1 MOL1         0.0783
      77    C23     21.267585   22.951623   19.782425 C.3        1 MOL1         0.1043
      78    H37     21.067250   21.891501   19.970343 H          1 MOL1         0.0783
      79    O19     22.685734   23.154413   19.563775 O.3        1 MOL1        -0.3740
      80    C24     20.528641   23.342913   18.484021 C.3        1 MOL1         0.0138
      81    H38     19.451942   23.177781   18.619550 H          1 MOL1         0.0794
      82    H39     20.864095   22.680018   17.675135 H          1 MOL1         0.0794
      83    O20     20.779278   24.709411   18.142857 O.3        1 MOL1        -0.5486
      84    H40     21.757204   24.807746   18.119700 H          1 MOL1         0.3769
      85    C25     24.823869   17.785610   22.152045 C.3        1 MOL1         0.2972
      86    H41     25.469484   16.964281   22.487829 H          1 MOL1         0.0751
      87    O21     23.582539   17.293170   21.605916 O.3        1 MOL1        -0.3740
      88    C26     24.511380   18.735477   23.337696 C.3        1 MOL1         0.1003
      89    H42     25.468580   19.133408   23.698506 H          1 MOL1         0.0783
      90    O22     23.880592   18.000189   24.400707 O.3        1 MOL1        -0.5519
      91    H43     23.300044   18.623959   24.909380 H          1 MOL1         0.3769
      92    C27     23.648550   19.938489   22.874785 C.3        1 MOL1         0.1053
      93    H44     22.647862   19.564887   22.625124 H          1 MOL1         0.0783
      94    O23     23.566569   20.910357   23.925028 O.3        1 MOL1        -0.5519
      95    H45     22.984240   20.525450   24.630002 H          1 MOL1         0.3769
      96    C28     24.242708   20.620032   21.613017 C.3        1 MOL1         0.1018
      97    H46     25.105598   21.227173   21.917224 H          1 MOL1         0.0783
      98    C29     24.678930   19.600897   20.525521 C.3        1 MOL1         0.1043
      99    H47     23.774547   19.166362   20.079405 H          1 MOL1         0.0783
     100    O24     25.483253   18.556458   21.125823 O.3        1 MOL1        -0.3740
     101    C30     25.502640   20.233008   19.381601 C.3        1 MOL1         0.0138
     102    H48     24.871412   20.950462   18.840540 H          1 MOL1         0.0794
     103    H49     25.781917   19.443617   18.670912 H          1 MOL1         0.0794
     104    O25     26.672440   20.885406   19.884149 O.3        1 MOL1        -0.5486
     105    H50     27.172213   20.203914   20.386412 H          1 MOL1         0.3769
     106    C31     21.420359   13.781549   21.168943 C.3        1 MOL1         0.2972
     107    H51     21.075175   12.760222   20.964626 H          1 MOL1         0.0751
     108    O26     20.323239   14.679121   21.430661 O.3        1 MOL1        -0.3740
     109    C32     22.365051   13.800247   22.396294 C.3        1 MOL1         0.1003
     110    H52     23.229721   13.167800   22.156595 H          1 MOL1         0.0783
     111    O27     21.712764   13.286638   23.565923 O.3        1 MOL1        -0.5519
     112    H53     22.335587   13.483984   24.301498 H          1 MOL1         0.3769
     113    C33     22.881716   15.231931   22.671530 C.3        1 MOL1         0.1053
     114    H54     22.025981   15.845167   22.984879 H          1 MOL1         0.0783
     115    O28     23.852946   15.185096   23.723329 O.3        1 MOL1        -0.5519
     116    H55     23.928246   16.112205   24.062087 H          1 MOL1         0.3769
     117    C34     23.489776   15.871059   21.392763 C.3        1 MOL1         0.1018
     118    H56     24.474866   15.430145   21.190389 H          1 MOL1         0.0783
     119    C35     22.586242   15.673656   20.144229 C.3        1 MOL1         0.1043
     120    H57     21.705585   16.321756   20.241570 H          1 MOL1         0.0783
     121    O29     22.164251   14.291242   20.043217 O.3        1 MOL1        -0.3740
     122    C36     23.302176   16.038976   18.824944 C.3        1 MOL1         0.0138
     123    H58     23.638738   17.082696   18.875259 H          1 MOL1         0.0794
     124    H59     22.581132   15.963765   18.000061 H          1 MOL1         0.0794
     125    O30     24.417011   15.174040   18.589358 O.3        1 MOL1        -0.5486
     126    H60     24.066924   14.257824   18.657617 H          1 MOL1         0.3769
     127    C1      20.672676   19.535660   25.578630 C.2        1 MOL1         0.6168
     128    O1      19.943643   19.390474   26.539813 O.co2      1 MOL1        -0.6703
     129    O2      21.888010   19.551197   25.645091 O.co2      1 MOL1        -0.6703
     130    C2      20.033491   19.689277   24.202471 C.3        1 MOL1        -0.1963
     131    H1      20.624488   20.412667   23.630926 H          1 MOL1         0.0750
     132    H2      19.038343   20.124543   24.344062 H          1 MOL1         0.0750
     133    C3      19.916659   18.342763   23.443628 C.3        1 MOL1        -0.1860
     134    H3      20.899612   17.855201   23.399962 H          1 MOL1         0.0752
     135    H4      19.265754   17.674779   24.023927 H          1 MOL1         0.0752
     136    C4      19.341673   18.489104   22.015738 C.3        1 MOL1        -0.1858
     137    H5      18.443071   19.118470   22.036095 H          1 MOL1         0.0752
     138    H6      19.022817   17.498869   21.670224 H          1 MOL1         0.0752
     139    C5      20.365739   19.048492   21.004230 C.3        1 MOL1        -0.1858
     140    H7      20.677181   20.057511   21.301111 H          1 MOL1         0.0752
     141    H8      21.263623   18.420955   21.025234 H          1 MOL1         0.0752
     142    C6      19.797460   19.083508   19.569286 C.3        1 MOL1        -0.1858
     143    H9      19.051713   19.886780   19.496782 H          1 MOL1         0.0752
     144    H10     19.276537   18.141108   19.354879 H          1 MOL1         0.0752
     145    C7      20.902148   19.285790   18.510733 C.3        1 MOL1        -0.1834
     146    H11     21.510963   20.164812   18.752543 H          1 MOL1         0.0752
     147    H12     21.581968   18.424971   18.524572 H          1 MOL1         0.0752
     148    C8      20.307249   19.443886   17.097988 C.3        1 MOL1        -0.2849
     149    H13     19.643179   20.316377   17.047292 H          1 MOL1         0.0764
     150    H14     21.104322   19.580309   16.355916 H          1 MOL1         0.0764
     151    H15     19.727998   18.555425   16.815028 H          1 MOL1         0.0764
@<TRIPOS>BOND
    1     1     2    1
    2     1     3    1
    3     1     4    1
    4     4     5    1
    5     4     6    1
    6     6     7    1
    7     4     8    1
    8     8     9    1
    9     8    10    1
   10    10    11    1
   11     8    12    1
   12    12    13    1
   13    12    14    1
   14    14    15    1
   15     1    16    1
   16    14    16    1
   17    14    17    1
   18    17    18    1
   19    17    19    1
   20    17    20    1
   21    20    21    1
   22    22    23    1
   23    22    24    1
   24    22    25    1
   25    25    26    1
   26    25    27    1
   27    27    28    1
   28    25    29    1
   29    29    30    1
   30    29    31    1
   31    31    32    1
   32     3    33    1
   33    29    33    1
   34    33    34    1
   35    33    35    1
   36    35    36    1
   37    22    37    1
   38    35    37    1
   39    35    38    1
   40    38    39    1
   41    38    40    1
   42    38    41    1
   43    41    42    1
   44    43    44    1
   45    43    45    1
   46    43    46    1
   47    46    47    1
   48    46    48    1
   49    48    49    1
   50    46    50    1
   51    50    51    1
   52    50    52    1
   53    52    53    1
   54    24    54    1
   55    50    54    1
   56    54    55    1
   57    54    56    1
   58    56    57    1
   59    43    58    1
   60    56    58    1
   61    56    59    1
   62    59    60    1
   63    59    61    1
   64    59    62    1
   65    62    63    1
   66    64    65    1
   67    64    66    1
   68    64    67    1
   69    67    68    1
   70    67    69    1
   71    69    70    1
   72    67    71    1
   73    71    72    1
   74    71    73    1
   75    73    74    1
   76    45    75    1
   77    71    75    1
   78    75    76    1
   79    75    77    1
   80    77    78    1
   81    64    79    1
   82    77    79    1
   83    77    80    1
   84    80    81    1
   85    80    82    1
   86    80    83    1
   87    83    84    1
   88    85    86    1
   89    85    87    1
   90    85    88    1
   91    88    89    1
   92    88    90    1
   93    90    91    1
   94    88    92    1
   95    92    93    1
   96    92    94    1
   97    94    95    1
   98    66    96    1
   99    92    96    1
  100    96    97    1
  101    96    98    1
  102    98    99    1
  103    85   100    1
  104    98   100    1
  105    98   101    1
  106   101   102    1
  107   101   103    1
  108   101   104    1
  109   104   105    1
  110   106   107    1
  111    12   108    1
  112   106   108    1
  113   106   109    1
  114   109   110    1
  115   109   111    1
  116   111   112    1
  117   109   113    1
  118   113   114    1
  119   113   115    1
  120   115   116    1
  121    87   117    1
  122   113   117    1
  123   117   118    1
  124   117   119    1
  125   119   120    1
  126   106   121    1
  127   119   121    1
  128   119   122    1
  129   122   123    1
  130   122   124    1
  131   122   125    1
  132   125   126    1
  133   127   128    1
  134   127   129    2
  135   127   130    1
  136   130   131    1
  137   130   132    1
  138   130   133    1
  139   133   134    1
  140   133   135    1
  141   133   136    1
  142   136   137    1
  143   136   138    1
  144   136   139    1
  145   139   140    1
  146   139   141    1
  147   139   142    1
  148   142   143    1
  149   142   144    1
  150   142   145    1
  151   145   146    1
  152   145   147    1
  153   145   148    1
  154   148   149    1
  155   148   150    1
  156   148   151    1
@<TRIPOS>SUBSTRUCTURE
       1 MOL1            1 RESIDUE      1      MOL     
       2 MOL1          151 RESIDUE      1      MOL     
@<SCITEGIC>MOL_PROPERTY
VM2 Rank
SciTegic.value.IntegerValue
3

@<SCITEGIC>MOL_PROPERTY
Conf_Id
SciTegic.value.IntegerValue
26925

@<SCITEGIC>MOL_PROPERTY
Probability
SciTegic.value.DoubleValue
3.46

@<SCITEGIC>MOL_PROPERTY
Sum Probability
SciTegic.value.DoubleValue
11.37

@<SCITEGIC>MOL_PROPERTY
Delta G
SciTegic.value.DoubleValue
0.085

@<SCITEGIC>MOL_PROPERTY
G
SciTegic.value.DoubleValue
504.904

@<SCITEGIC>MOL_PROPERTY
E
SciTegic.value.DoubleValue
307.784

@<SCITEGIC>MOL_PROPERTY
-TS
SciTegic.value.DoubleValue
197.121

@<SCITEGIC>MOL_PROPERTY
U+W
SciTegic.value.DoubleValue
174.541

@<SCITEGIC>MOL_PROPERTY
U
SciTegic.value.DoubleValue
246.225

@<SCITEGIC>MOL_PROPERTY
W
SciTegic.value.DoubleValue
-71.683

@<SCITEGIC>MOL_PROPERTY
W(PB)
SciTegic.value.DoubleValue
-77.896

@<SCITEGIC>MOL_PROPERTY
W(SA)
SciTegic.value.DoubleValue
6.213

@<SCITEGIC>MOL_PROPERTY
Valence
SciTegic.value.DoubleValue
151.045

@<SCITEGIC>MOL_PROPERTY
Coulomb
SciTegic.value.DoubleValue
122.192

@<SCITEGIC>MOL_PROPERTY
VdW
SciTegic.value.DoubleValue
-27.013

@<SCITEGIC>MOL_PROPERTY
VdW6
SciTegic.value.DoubleValue
-184.907

@<SCITEGIC>MOL_PROPERTY
VdW12
SciTegic.value.DoubleValue
157.894

@<SCITEGIC>MOL_PROPERTY
Bond
SciTegic.value.DoubleValue
4.479

@<SCITEGIC>MOL_PROPERTY
Angle
SciTegic.value.DoubleValue
11.495

@<SCITEGIC>MOL_PROPERTY
Pdih
SciTegic.value.DoubleValue
135.070

@<SCITEGIC>MOL_PROPERTY
Idih
SciTegic.value.DoubleValue
0.001

@<SCITEGIC>MOL_PROPERTY
Tether
SciTegic.value.DoubleValue
0.000

@<TRIPOS>MOLECULE
CD_guest-8_vm2_rndm.mol2 : vm2 host+ligand conformer 4
         151         156           2
SMALL
USER_CHARGES
 
@<TRIPOS>ATOM
       1    C1      16.350377   15.252981   20.821383 C.3        1 MOL1         0.2972
       2    H1      15.305885   15.091042   20.526494 H          1 MOL1         0.0751
       3    O1      16.558829   16.585343   21.328922 O.3        1 MOL1        -0.3740
       4    C2      16.760105   14.238479   21.921893 C.3        1 MOL1         0.1003
       5    H2      16.593971   13.232261   21.515735 H          1 MOL1         0.0783
       6    O2      15.968182   14.405697   23.106477 O.3        1 MOL1        -0.5519
       7    H3      16.397982   13.827134   23.775853 H          1 MOL1         0.3769
       8    C3      18.261322   14.364928   22.275970 C.3        1 MOL1         0.1053
       9    H4      18.417820   15.335024   22.768202 H          1 MOL1         0.0783
      10    O3      18.636907   13.300177   23.158987 O.3        1 MOL1        -0.5519
      11    H5      19.601157   13.415155   23.350471 H          1 MOL1         0.3769
      12    C4      19.139179   14.323354   21.002133 C.3        1 MOL1         0.1018
      13    H6      19.134509   13.304558   20.592543 H          1 MOL1         0.0783
      14    C5      18.627232   15.305816   19.918308 C.3        1 MOL1         0.1043
      15    H7      18.779367   16.331255   20.277613 H          1 MOL1         0.0783
      16    O4      17.218962   15.063427   19.684725 O.3        1 MOL1        -0.3740
      17    C6      19.350968   15.153295   18.562136 C.3        1 MOL1         0.0138
      18    H8      20.421676   15.346635   18.699116 H          1 MOL1         0.0794
      19    H9      18.966950   15.914605   17.870287 H          1 MOL1         0.0794
      20    O5      19.152267   13.844599   18.019795 O.3        1 MOL1        -0.5486
      21    H10     18.179604   13.704105   18.002184 H          1 MOL1         0.3769
      22    C7      14.681185   20.298946   21.506097 C.3        1 MOL1         0.2972
      23    H11     13.950561   21.117351   21.490071 H          1 MOL1         0.0751
      24    O6      16.030159   20.787419   21.628544 O.3        1 MOL1        -0.3740
      25    C8      14.397689   19.347422   22.697094 C.3        1 MOL1         0.1003
      26    H12     13.380482   18.955786   22.566752 H          1 MOL1         0.0783
      27    O7      14.479090   20.037899   23.951650 O.3        1 MOL1        -0.5519
      28    H13     14.441265   19.325056   24.628554 H          1 MOL1         0.3769
      29    C9      15.372355   18.146089   22.696802 C.3        1 MOL1         0.1053
      30    H14     16.380496   18.517676   22.925939 H          1 MOL1         0.0783
      31    O8      14.961138   17.198330   23.689973 O.3        1 MOL1        -0.5519
      32    H15     15.462735   16.364940   23.510104 H          1 MOL1         0.3769
      33    C10     15.408709   17.453157   21.313765 C.3        1 MOL1         0.1018
      34    H16     14.473295   16.891572   21.189859 H          1 MOL1         0.0783
      35    C11     15.567561   18.464615   20.144016 C.3        1 MOL1         0.1043
      36    H17     16.582226   18.882649   20.173659 H          1 MOL1         0.0783
      37    O9      14.592778   19.526723   20.289765 O.3        1 MOL1        -0.3740
      38    C12     15.355515   17.837204   18.748310 C.3        1 MOL1         0.0138
      39    H18     16.141621   17.095058   18.561782 H          1 MOL1         0.0794
      40    H19     15.465626   18.623053   17.989211 H          1 MOL1         0.0794
      41    O10     14.064523   17.228514   18.647365 O.3        1 MOL1        -0.5486
      42    H20     13.413017   17.933291   18.859537 H          1 MOL1         0.3769
      43    C13     18.414835   24.143687   21.450342 C.3        1 MOL1         0.2972
      44    H21     18.842033   25.153316   21.403002 H          1 MOL1         0.0751
      45    O11     19.426693   23.126465   21.300306 O.3        1 MOL1        -0.3740
      46    C14     17.684757   23.940951   22.801449 C.3        1 MOL1         0.1003
      47    H22     16.865162   24.670087   22.843624 H          1 MOL1         0.0783
      48    O12     18.561824   24.157262   23.914554 O.3        1 MOL1        -0.5519
      49    H23     18.063030   23.815393   24.690658 H          1 MOL1         0.3769
      50    C15     17.066388   22.528458   22.882678 C.3        1 MOL1         0.1053
      51    H24     17.887314   21.801795   22.920259 H          1 MOL1         0.0783
      52    O13     16.265008   22.422550   24.065740 O.3        1 MOL1        -0.5519
      53    H25     15.786576   21.558279   24.007678 H          1 MOL1         0.3769
      54    C16     16.198376   22.217161   21.639049 C.3        1 MOL1         0.1018
      55    H26     15.242317   22.747181   21.741699 H          1 MOL1         0.0783
      56    C17     16.879446   22.621469   20.300513 C.3        1 MOL1         0.1043
      57    H27     17.679889   21.901388   20.087075 H          1 MOL1         0.0783
      58    O14     17.438619   23.955942   20.404051 O.3        1 MOL1        -0.3740
      59    C18     15.910217   22.615281   19.097913 C.3        1 MOL1         0.0138
      60    H28     15.526325   21.597756   18.949332 H          1 MOL1         0.0794
      61    H29     16.469539   22.889198   18.193364 H          1 MOL1         0.0794
      62    O15     14.827199   23.526777   19.305756 O.3        1 MOL1        -0.5486
      63    H30     15.237890   24.402746   19.480735 H          1 MOL1         0.3769
      64    C19     23.480218   22.573051   20.622393 C.3        1 MOL1         0.2972
      65    H31     24.529897   22.656661   20.313298 H          1 MOL1         0.0751
      66    O16     23.172806   21.240364   21.077924 O.3        1 MOL1        -0.3740
      67    C20     23.148809   23.600553   21.739642 C.3        1 MOL1         0.1003
      68    H32     23.331965   24.599024   21.322713 H          1 MOL1         0.0783
      69    O17     24.002885   23.413418   22.879501 O.3        1 MOL1        -0.5519
      70    H33     23.747140   22.549238   23.288700 H          1 MOL1         0.3769
      71    C21     21.649899   23.523401   22.136259 C.3        1 MOL1         0.1053
      72    H34     21.480492   22.562026   22.641050 H          1 MOL1         0.0783
      73    O18     21.312893   24.603738   23.015226 O.3        1 MOL1        -0.5519
      74    H35     20.404574   24.415477   23.358052 H          1 MOL1         0.3769
      75    C22     20.729049   23.584804   20.888531 C.3        1 MOL1         0.1018
      76    H36     20.699579   24.615214   20.510155 H          1 MOL1         0.0783
      77    C23     21.201266   22.652282   19.742970 C.3        1 MOL1         0.1043
      78    H37     21.012295   21.614337   20.040323 H          1 MOL1         0.0783
      79    O19     22.616207   22.852081   19.501810 O.3        1 MOL1        -0.3740
      80    C24     20.458433   22.901558   18.411993 C.3        1 MOL1         0.0138
      81    H38     19.382528   22.748601   18.566460 H          1 MOL1         0.0794
      82    H39     20.794689   22.157256   17.677668 H          1 MOL1         0.0794
      83    O20     20.703632   24.224805   17.926654 O.3        1 MOL1        -0.5486
      84    H40     21.681161   24.324208   17.895468 H          1 MOL1         0.3769
      85    C25     24.955922   17.703543   22.273751 C.3        1 MOL1         0.2972
      86    H41     25.623111   16.909381   22.632121 H          1 MOL1         0.0751
      87    O21     23.741513   17.167015   21.709410 O.3        1 MOL1        -0.3740
      88    C26     24.586294   18.661902   23.434782 C.3        1 MOL1         0.1003
      89    H42     25.514857   19.132792   23.782376 H          1 MOL1         0.0783
      90    O22     24.007743   17.918755   24.519031 O.3        1 MOL1        -0.5519
      91    H43     23.322493   18.493335   24.948660 H          1 MOL1         0.3769
      92    C27     23.647687   19.788734   22.928821 C.3        1 MOL1         0.1053
      93    H44     22.692830   19.336949   22.634175 H          1 MOL1         0.0783
      94    O23     23.428029   20.756954   23.963826 O.3        1 MOL1        -0.5519
      95    H45     22.771581   20.351878   24.589905 H          1 MOL1         0.3769
      96    C28     24.245887   20.494008   21.683407 C.3        1 MOL1         0.1018
      97    H46     25.064888   21.147344   22.011651 H          1 MOL1         0.0783
      98    C29     24.770139   19.490225   20.617390 C.3        1 MOL1         0.1043
      99    H47     23.903960   19.007962   20.144844 H          1 MOL1         0.0783
     100    O24     25.604417   18.488486   21.251107 O.3        1 MOL1        -0.3740
     101    C30     25.600992   20.149579   19.494067 C.3        1 MOL1         0.0138
     102    H48     24.951439   20.816993   18.912469 H          1 MOL1         0.0794
     103    H49     25.955056   19.365379   18.811515 H          1 MOL1         0.0794
     104    O25     26.709153   20.879641   20.028223 O.3        1 MOL1        -0.5486
     105    H50     27.234013   20.236723   20.555047 H          1 MOL1         0.3769
     106    C31     21.501556   13.754723   21.272804 C.3        1 MOL1         0.2972
     107    H51     21.095068   12.749582   21.104598 H          1 MOL1         0.0751
     108    O26     20.457963   14.744042   21.396524 O.3        1 MOL1        -0.3740
     109    C32     22.352390   13.769047   22.564696 C.3        1 MOL1         0.1003
     110    H52     23.186518   13.070585   22.417819 H          1 MOL1         0.0783
     111    O27     21.578069   13.350623   23.697535 O.3        1 MOL1        -0.5519
     112    H53     22.148305   13.548267   24.474197 H          1 MOL1         0.3769
     113    C33     22.945160   15.173593   22.819093 C.3        1 MOL1         0.1053
     114    H54     22.112738   15.845044   23.066340 H          1 MOL1         0.0783
     115    O28     23.854089   15.104366   23.923516 O.3        1 MOL1        -0.5519
     116    H55     23.983838   16.036409   24.229585 H          1 MOL1         0.3769
     117    C34     23.663501   15.736840   21.561067 C.3        1 MOL1         0.1018
     118    H56     24.658511   15.282347   21.465641 H          1 MOL1         0.0783
     119    C35     22.870373   15.497542   20.246986 C.3        1 MOL1         0.1043
     120    H57     22.028666   16.199977   20.224259 H          1 MOL1         0.0783
     121    O29     22.368752   14.139837   20.187681 O.3        1 MOL1        -0.3740
     122    C36     23.719033   15.742706   18.979907 C.3        1 MOL1         0.0138
     123    H58     24.094236   16.774735   18.993336 H          1 MOL1         0.0794
     124    H59     23.074155   15.637229   18.097215 H          1 MOL1         0.0794
     125    O30     24.810849   14.821368   18.908015 O.3        1 MOL1        -0.5486
     126    H60     24.414811   13.924951   18.987890 H          1 MOL1         0.3769
     127    C1      20.670447   18.487581   25.263373 C.2        1 MOL1         0.6168
     128    O1      21.678674   19.149896   25.432101 O.co2      1 MOL1        -0.6703
     129    O2      19.999602   18.031477   26.167820 O.co2      1 MOL1        -0.6703
     130    C2      20.218457   18.231310   23.828977 C.3        1 MOL1        -0.1963
     131    H1      19.465618   17.434200   23.838011 H          1 MOL1         0.0750
     132    H2      21.081518   17.855518   23.272290 H          1 MOL1         0.0750
     133    C3      19.642442   19.501317   23.154375 C.3        1 MOL1        -0.1860
     134    H3      18.797363   19.860182   23.756820 H          1 MOL1         0.0752
     135    H4      20.395263   20.301371   23.169293 H          1 MOL1         0.0752
     136    C4      19.162457   19.273888   21.703601 C.3        1 MOL1        -0.1858
     137    H5      18.699047   20.202069   21.349318 H          1 MOL1         0.0752
     138    H6      18.382026   18.504825   21.689704 H          1 MOL1         0.0752
     139    C5      20.294381   18.876237   20.733326 C.3        1 MOL1        -0.1858
     140    H7      21.156417   19.534000   20.890625 H          1 MOL1         0.0752
     141    H8      20.630787   17.856092   20.955090 H          1 MOL1         0.0752
     142    C6      19.841044   18.972776   19.260879 C.3        1 MOL1        -0.1858
     143    H9      19.460967   19.982908   19.059966 H          1 MOL1         0.0752
     144    H10     19.006725   18.283078   19.081549 H          1 MOL1         0.0752
     145    C7      20.997829   18.664028   18.289635 C.3        1 MOL1        -0.1834
     146    H11     21.825504   19.364957   18.466940 H          1 MOL1         0.0752
     147    H12     21.385175   17.656398   18.482320 H          1 MOL1         0.0752
     148    C8      20.545671   18.765116   16.820036 C.3        1 MOL1        -0.2849
     149    H13     20.182667   19.775084   16.589857 H          1 MOL1         0.0764
     150    H14     21.380181   18.542375   16.142835 H          1 MOL1         0.0764
     151    H15     19.737185   18.053908   16.607484 H          1 MOL1         0.0764
@<TRIPOS>BOND
    1     1     2    1
    2     1     3    1
    3     1     4    1
    4     4     5    1
    5     4     6    1
    6     6     7    1
    7     4     8    1
    8     8     9    1
    9     8    10    1
   10    10    11    1
   11     8    12    1
   12    12    13    1
   13    12    14    1
   14    14    15    1
   15     1    16    1
   16    14    16    1
   17    14    17    1
   18    17    18    1
   19    17    19    1
   20    17    20    1
   21    20    21    1
   22    22    23    1
   23    22    24    1
   24    22    25    1
   25    25    26    1
   26    25    27    1
   27    27    28    1
   28    25    29    1
   29    29    30    1
   30    29    31    1
   31    31    32    1
   32     3    33    1
   33    29    33    1
   34    33    34    1
   35    33    35    1
   36    35    36    1
   37    22    37    1
   38    35    37    1
   39    35    38    1
   40    38    39    1
   41    38    40    1
   42    38    41    1
   43    41    42    1
   44    43    44    1
   45    43    45    1
   46    43    46    1
   47    46    47    1
   48    46    48    1
   49    48    49    1
   50    46    50    1
   51    50    51    1
   52    50    52    1
   53    52    53    1
   54    24    54    1
   55    50    54    1
   56    54    55    1
   57    54    56    1
   58    56    57    1
   59    43    58    1
   60    56    58    1
   61    56    59    1
   62    59    60    1
   63    59    61    1
   64    59    62    1
   65    62    63    1
   66    64    65    1
   67    64    66    1
   68    64    67    1
   69    67    68    1
   70    67    69    1
   71    69    70    1
   72    67    71    1
   73    71    72    1
   74    71    73    1
   75    73    74    1
   76    45    75    1
   77    71    75    1
   78    75    76    1
   79    75    77    1
   80    77    78    1
   81    64    79    1
   82    77    79    1
   83    77    80    1
   84    80    81    1
   85    80    82    1
   86    80    83    1
   87    83    84    1
   88    85    86    1
   89    85    87    1
   90    85    88    1
   91    88    89    1
   92    88    90    1
   93    90    91    1
   94    88    92    1
   95    92    93    1
   96    92    94    1
   97    94    95    1
   98    66    96    1
   99    92    96    1
  100    96    97    1
  101    96    98    1
  102    98    99    1
  103    85   100    1
  104    98   100    1
  105    98   101    1
  106   101   102    1
  107   101   103    1
  108   101   104    1
  109   104   105    1
  110   106   107    1
  111    12   108    1
  112   106   108    1
  113   106   109    1
  114   109   110    1
  115   109   111    1
  116   111   112    1
  117   109   113    1
  118   113   114    1
  119   113   115    1
  120   115   116    1
  121    87   117    1
  122   113   117    1
  123   117   118    1
  124   117   119    1
  125   119   120    1
  126   106   121    1
  127   119   121    1
  128   119   122    1
  129   122   123    1
  130   122   124    1
  131   122   125    1
  132   125   126    1
  133   127   128    1
  134   127   129    2
  135   127   130    1
  136   130   131    1
  137   130   132    1
  138   130   133    1
  139   133   134    1
  140   133   135    1
  141   133   136    1
  142   136   137    1
  143   136   138    1
  144   136   139    1
  145   139   140    1
  146   139   141    1
  147   139   142    1
  148   142   143    1
  149   142   144    1
  150   142   145    1
  151   145   146    1
  152   145   147    1
  153   145   148    1
  154   148   149    1
  155   148   150    1
  156   148   151    1
@<TRIPOS>SUBSTRUCTURE
       1 MOL1            1 RESIDUE      1      MOL     
       2 MOL1          151 RESIDUE      1      MOL     
@<SCITEGIC>MOL_PROPERTY
VM2 Rank
SciTegic.value.IntegerValue
4

@<SCITEGIC>MOL_PROPERTY
Conf_Id
SciTegic.value.IntegerValue
24000

@<SCITEGIC>MOL_PROPERTY
Probability
SciTegic.value.DoubleValue
2.27

@<SCITEGIC>MOL_PROPERTY
Sum Probability
SciTegic.value.DoubleValue
13.63

@<SCITEGIC>MOL_PROPERTY
Delta G
SciTegic.value.DoubleValue
0.338

@<SCITEGIC>MOL_PROPERTY
G
SciTegic.value.DoubleValue
505.157

@<SCITEGIC>MOL_PROPERTY
E
SciTegic.value.DoubleValue
307.112

@<SCITEGIC>MOL_PROPERTY
-TS
SciTegic.value.DoubleValue
198.045

@<SCITEGIC>MOL_PROPERTY
U+W
SciTegic.value.DoubleValue
173.870

@<SCITEGIC>MOL_PROPERTY
U
SciTegic.value.DoubleValue
245.864

@<SCITEGIC>MOL_PROPERTY
W
SciTegic.value.DoubleValue
-71.994

@<SCITEGIC>MOL_PROPERTY
W(PB)
SciTegic.value.DoubleValue
-78.230

@<SCITEGIC>MOL_PROPERTY
W(SA)
SciTegic.value.DoubleValue
6.236

@<SCITEGIC>MOL_PROPERTY
Valence
SciTegic.value.DoubleValue
151.193

@<SCITEGIC>MOL_PROPERTY
Coulomb
SciTegic.value.DoubleValue
122.402

@<SCITEGIC>MOL_PROPERTY
VdW
SciTegic.value.DoubleValue
-27.732

@<SCITEGIC>MOL_PROPERTY
VdW6
SciTegic.value.DoubleValue
-184.893

@<SCITEGIC>MOL_PROPERTY
VdW12
SciTegic.value.DoubleValue
157.161

@<SCITEGIC>MOL_PROPERTY
Bond
SciTegic.value.DoubleValue
4.460

@<SCITEGIC>MOL_PROPERTY
Angle
SciTegic.value.DoubleValue
11.144

@<SCITEGIC>MOL_PROPERTY
Pdih
SciTegic.value.DoubleValue
135.589

@<SCITEGIC>MOL_PROPERTY
Idih
SciTegic.value.DoubleValue
0.000

@<SCITEGIC>MOL_PROPERTY
Tether
SciTegic.value.DoubleValue
0.000

@<TRIPOS>MOLECULE
CD_guest-8_vm2_rndm.mol2 : vm2 host+ligand conformer 5
         151         156           2
SMALL
USER_CHARGES
 
@<TRIPOS>ATOM
       1    C1      16.323881   15.296181   20.793194 C.3        1 MOL1         0.2972
       2    H1      15.276156   15.156074   20.498251 H          1 MOL1         0.0751
       3    O1      16.545842   16.601928   21.358626 O.3        1 MOL1        -0.3740
       4    C2      16.736088   14.231741   21.844371 C.3        1 MOL1         0.1003
       5    H2      16.565089   13.245129   21.394516 H          1 MOL1         0.0783
       6    O2      15.952328   14.348300   23.040486 O.3        1 MOL1        -0.5519
       7    H3      16.380289   13.734126   23.678528 H          1 MOL1         0.3769
       8    C3      18.239332   14.340024   22.195818 C.3        1 MOL1         0.1053
       9    H4      18.399109   15.286716   22.730806 H          1 MOL1         0.0783
      10    O3      18.617000   13.236684   23.029087 O.3        1 MOL1        -0.5519
      11    H5      19.576553   13.355206   23.241067 H          1 MOL1         0.3769
      12    C4      19.112445   14.356171   20.917787 C.3        1 MOL1         0.1018
      13    H6      19.112509   13.355720   20.465207 H          1 MOL1         0.0783
      14    C5      18.594409   15.381017   19.876518 C.3        1 MOL1         0.1043
      15    H7      18.752621   16.391407   20.273972 H          1 MOL1         0.0783
      16    O4      17.183366   15.153801   19.642549 O.3        1 MOL1        -0.3740
      17    C6      19.310164   15.278493   18.511276 C.3        1 MOL1         0.0138
      18    H8      20.382475   15.462401   18.649934 H          1 MOL1         0.0794
      19    H9      18.925414   16.067262   17.851395 H          1 MOL1         0.0794
      20    O5      19.103339   13.992615   17.919580 O.3        1 MOL1        -0.5486
      21    H10     18.130111   13.856199   17.902757 H          1 MOL1         0.3769
      22    C7      14.656627   20.285006   21.747118 C.3        1 MOL1         0.2972
      23    H11     13.924299   21.098663   21.817728 H          1 MOL1         0.0751
      24    O6      16.008960   20.781380   21.726815 O.3        1 MOL1        -0.3740
      25    C8      14.496931   19.322526   22.951770 C.3        1 MOL1         0.1003
      26    H12     13.475228   18.922531   22.915372 H          1 MOL1         0.0783
      27    O7      14.690328   20.005216   24.197994 O.3        1 MOL1        -0.5519
      28    H13     14.736160   19.286503   24.868238 H          1 MOL1         0.3769
      29    C9      15.475191   18.130031   22.848841 C.3        1 MOL1         0.1053
      30    H14     16.496949   18.508570   22.985277 H          1 MOL1         0.0783
      31    O8      15.167860   17.170578   23.868036 O.3        1 MOL1        -0.5519
      32    H15     15.618419   16.329981   23.607370 H          1 MOL1         0.3769
      33    C10     15.384326   17.447622   21.463390 C.3        1 MOL1         0.1018
      34    H16     14.451862   16.868353   21.431448 H          1 MOL1         0.0783
      35    C11     15.408728   18.466515   20.288740 C.3        1 MOL1         0.1043
      36    H17     16.416804   18.897124   20.224277 H          1 MOL1         0.0783
      37    O9      14.447869   19.523365   20.539932 O.3        1 MOL1        -0.3740
      38    C12     15.087203   17.840812   18.910397 C.3        1 MOL1         0.0138
      39    H18     15.943822   17.230320   18.595848 H          1 MOL1         0.0794
      40    H19     14.979992   18.650303   18.175968 H          1 MOL1         0.0794
      41    O10     13.900715   17.036693   18.943080 O.3        1 MOL1        -0.5486
      42    H20     13.734064   16.716144   18.030178 H          1 MOL1         0.3769
      43    C13     18.363301   24.157834   21.399963 C.3        1 MOL1         0.2972
      44    H21     18.768811   25.172328   21.298646 H          1 MOL1         0.0751
      45    O11     19.400685   23.157001   21.348850 O.3        1 MOL1        -0.3740
      46    C14     17.602435   24.024213   22.742109 C.3        1 MOL1         0.1003
      47    H22     16.772986   24.743029   22.721223 H          1 MOL1         0.0783
      48    O12     18.449884   24.318467   23.860563 O.3        1 MOL1        -0.5519
      49    H23     17.932609   24.027284   24.645075 H          1 MOL1         0.3769
      50    C15     17.000435   22.609653   22.892486 C.3        1 MOL1         0.1053
      51    H24     17.829180   21.897545   23.001465 H          1 MOL1         0.0783
      52    O13     16.163913   22.568619   24.054934 O.3        1 MOL1        -0.5519
      53    H25     15.764600   21.663432   24.086345 H          1 MOL1         0.3769
      54    C16     16.176751   22.208654   21.643104 C.3        1 MOL1         0.1018
      55    H26     15.217686   22.742890   21.664388 H          1 MOL1         0.0783
      56    C17     16.904771   22.524281   20.306555 C.3        1 MOL1         0.1043
      57    H27     17.725122   21.809736   20.166753 H          1 MOL1         0.0783
      58    O14     17.419511   23.879686   20.343849 O.3        1 MOL1        -0.3740
      59    C18     15.966052   22.419355   19.087171 C.3        1 MOL1         0.0138
      60    H28     15.156157   23.154100   19.187820 H          1 MOL1         0.0794
      61    H29     15.511822   21.420503   19.062847 H          1 MOL1         0.0794
      62    O15     16.702415   22.645991   17.883646 O.3        1 MOL1        -0.5486
      63    H30     17.191690   23.488655   18.017393 H          1 MOL1         0.3769
      64    C19     23.455774   22.606689   20.674265 C.3        1 MOL1         0.2972
      65    H31     24.506509   22.695142   20.370150 H          1 MOL1         0.0751
      66    O16     23.148097   21.268110   21.112364 O.3        1 MOL1        -0.3740
      67    C20     23.119039   23.619087   21.803905 C.3        1 MOL1         0.1003
      68    H32     23.303800   24.623123   21.401307 H          1 MOL1         0.0783
      69    O17     23.967921   23.416824   22.945039 O.3        1 MOL1        -0.5519
      70    H33     23.711529   22.546524   23.340654 H          1 MOL1         0.3769
      71    C21     21.618174   23.536128   22.192315 C.3        1 MOL1         0.1053
      72    H34     21.445919   22.568199   22.683435 H          1 MOL1         0.0783
      73    O18     21.273566   24.605199   23.082283 O.3        1 MOL1        -0.5519
      74    H35     20.341487   24.444211   23.371226 H          1 MOL1         0.3769
      75    C22     20.704248   23.614479   20.941450 C.3        1 MOL1         0.1018
      76    H36     20.681796   24.650160   20.577577 H          1 MOL1         0.0783
      77    C23     21.179857   22.693085   19.788295 C.3        1 MOL1         0.1043
      78    H37     20.993556   21.652596   20.077238 H          1 MOL1         0.0783
      79    O19     22.594973   22.898943   19.553838 O.3        1 MOL1        -0.3740
      80    C24     20.438382   22.946541   18.457532 C.3        1 MOL1         0.0138
      81    H38     19.368982   22.748742   18.601962 H          1 MOL1         0.0794
      82    H39     20.804846   22.231301   17.709004 H          1 MOL1         0.0794
      83    O20     20.635854   24.288609   18.002692 O.3        1 MOL1        -0.5486
      84    H40     21.608831   24.419793   17.957984 H          1 MOL1         0.3769
      85    C25     24.923157   17.712503   22.265643 C.3        1 MOL1         0.2972
      86    H41     25.589068   16.913523   22.615567 H          1 MOL1         0.0751
      87    O21     23.710913   17.183257   21.689512 O.3        1 MOL1        -0.3740
      88    C26     24.550087   18.655128   23.438603 C.3        1 MOL1         0.1003
      89    H42     25.478011   19.119314   23.796757 H          1 MOL1         0.0783
      90    O22     23.965478   17.897805   24.509763 O.3        1 MOL1        -0.5519
      91    H43     23.283901   18.469655   24.948757 H          1 MOL1         0.3769
      92    C27     23.615541   19.790919   22.945452 C.3        1 MOL1         0.1053
      93    H44     22.660674   19.344537   22.643013 H          1 MOL1         0.0783
      94    O23     23.395050   20.745339   23.993035 O.3        1 MOL1        -0.5519
      95    H45     22.737621   20.332700   24.613114 H          1 MOL1         0.3769
      96    C28     24.218340   20.512358   21.711229 C.3        1 MOL1         0.1018
      97    H46     25.037151   21.160351   22.050355 H          1 MOL1         0.0783
      98    C29     24.743941   19.521966   20.633471 C.3        1 MOL1         0.1043
      99    H47     23.878345   19.046873   20.152701 H          1 MOL1         0.0783
     100    O24     25.575499   18.511010   21.255993 O.3        1 MOL1        -0.3740
     101    C30     25.578043   20.195052   19.520775 C.3        1 MOL1         0.0138
     102    H48     24.930555   20.870902   18.946656 H          1 MOL1         0.0794
     103    H49     25.932640   19.419499   18.828691 H          1 MOL1         0.0794
     104    O25     26.685901   20.916615   20.066973 O.3        1 MOL1        -0.5486
     105    H50     27.208582   20.266214   20.586724 H          1 MOL1         0.3769
     106    C31     21.472354   13.777982   21.194919 C.3        1 MOL1         0.2972
     107    H51     21.064387   12.776040   21.011705 H          1 MOL1         0.0751
     108    O26     20.430458   14.768275   21.323876 O.3        1 MOL1        -0.3740
     109    C32     22.316838   13.774383   22.491117 C.3        1 MOL1         0.1003
     110    H52     23.152208   13.078702   22.338191 H          1 MOL1         0.0783
     111    O27     21.538179   13.339055   23.614469 O.3        1 MOL1        -0.5519
     112    H53     22.104124   13.528399   24.396362 H          1 MOL1         0.3769
     113    C33     22.907605   15.175530   22.767811 C.3        1 MOL1         0.1053
     114    H54     22.073555   15.843785   23.018327 H          1 MOL1         0.0783
     115    O28     23.809511   15.091915   23.876992 O.3        1 MOL1        -0.5519
     116    H55     23.938673   16.020088   24.194875 H          1 MOL1         0.3769
     117    C34     23.634031   15.754893   21.521846 C.3        1 MOL1         0.1018
     118    H56     24.629762   15.301752   21.427529 H          1 MOL1         0.0783
     119    C35     22.850031   15.531563   20.199244 C.3        1 MOL1         0.1043
     120    H57     22.009433   16.235279   20.178759 H          1 MOL1         0.0783
     121    O29     22.346581   14.175298   20.119817 O.3        1 MOL1        -0.3740
     122    C36     23.708297   15.790602   18.941454 C.3        1 MOL1         0.0138
     123    H58     24.085017   16.821785   18.970172 H          1 MOL1         0.0794
     124    H59     23.069645   15.696905   18.052909 H          1 MOL1         0.0794
     125    O30     24.799192   14.868405   18.866396 O.3        1 MOL1        -0.5486
     126    H60     24.401183   13.971714   18.932076 H          1 MOL1         0.3769
     127    C1      20.629604   18.472428   25.271758 C.2        1 MOL1         0.6168
     128    O1      21.642617   19.126207   25.445343 O.co2      1 MOL1        -0.6703
     129    O2      19.952278   18.019282   26.172840 O.co2      1 MOL1        -0.6703
     130    C2      20.180961   18.223082   23.835156 C.3        1 MOL1        -0.1963
     131    H1      19.430014   17.424065   23.837497 H          1 MOL1         0.0750
     132    H2      21.046458   17.852760   23.278508 H          1 MOL1         0.0750
     133    C3      19.603988   19.495623   23.166364 C.3        1 MOL1        -0.1860
     134    H3      18.748072   19.844221   23.759796 H          1 MOL1         0.0752
     135    H4      20.350956   20.300658   23.198847 H          1 MOL1         0.0752
     136    C4      19.146146   19.279339   21.707135 C.3        1 MOL1        -0.1858
     137    H5      18.673138   20.205438   21.363933 H          1 MOL1         0.0752
     138    H6      18.377834   18.499367   21.668808 H          1 MOL1         0.0752
     139    C5      20.295719   18.915473   20.744705 C.3        1 MOL1        -0.1858
     140    H7      21.145031   19.582970   20.924858 H          1 MOL1         0.0752
     141    H8      20.644749   17.896676   20.952617 H          1 MOL1         0.0752
     142    C6      19.860672   19.032900   19.268185 C.3        1 MOL1        -0.1858
     143    H9      19.464024   20.039458   19.080933 H          1 MOL1         0.0752
     144    H10     19.041011   18.332904   19.063947 H          1 MOL1         0.0752
     145    C7      21.036356   18.764780   18.307374 C.3        1 MOL1        -0.1834
     146    H11     21.847022   19.478981   18.508542 H          1 MOL1         0.0752
     147    H12     21.441387   17.761848   18.487142 H          1 MOL1         0.0752
     148    C8      20.602274   18.883560   16.833683 C.3        1 MOL1        -0.2849
     149    H13     21.451031   18.694153   16.164126 H          1 MOL1         0.0764
     150    H14     19.814091   18.157614   16.596282 H          1 MOL1         0.0764
     151    H15     20.217553   19.888749   16.617914 H          1 MOL1         0.0764
@<TRIPOS>BOND
    1     1     2    1
    2     1     3    1
    3     1     4    1
    4     4     5    1
    5     4     6    1
    6     6     7    1
    7     4     8    1
    8     8     9    1
    9     8    10    1
   10    10    11    1
   11     8    12    1
   12    12    13    1
   13    12    14    1
   14    14    15    1
   15     1    16    1
   16    14    16    1
   17    14    17    1
   18    17    18    1
   19    17    19    1
   20    17    20    1
   21    20    21    1
   22    22    23    1
   23    22    24    1
   24    22    25    1
   25    25    26    1
   26    25    27    1
   27    27    28    1
   28    25    29    1
   29    29    30    1
   30    29    31    1
   31    31    32    1
   32     3    33    1
   33    29    33    1
   34    33    34    1
   35    33    35    1
   36    35    36    1
   37    22    37    1
   38    35    37    1
   39    35    38    1
   40    38    39    1
   41    38    40    1
   42    38    41    1
   43    41    42    1
   44    43    44    1
   45    43    45    1
   46    43    46    1
   47    46    47    1
   48    46    48    1
   49    48    49    1
   50    46    50    1
   51    50    51    1
   52    50    52    1
   53    52    53    1
   54    24    54    1
   55    50    54    1
   56    54    55    1
   57    54    56    1
   58    56    57    1
   59    43    58    1
   60    56    58    1
   61    56    59    1
   62    59    60    1
   63    59    61    1
   64    59    62    1
   65    62    63    1
   66    64    65    1
   67    64    66    1
   68    64    67    1
   69    67    68    1
   70    67    69    1
   71    69    70    1
   72    67    71    1
   73    71    72    1
   74    71    73    1
   75    73    74    1
   76    45    75    1
   77    71    75    1
   78    75    76    1
   79    75    77    1
   80    77    78    1
   81    64    79    1
   82    77    79    1
   83    77    80    1
   84    80    81    1
   85    80    82    1
   86    80    83    1
   87    83    84    1
   88    85    86    1
   89    85    87    1
   90    85    88    1
   91    88    89    1
   92    88    90    1
   93    90    91    1
   94    88    92    1
   95    92    93    1
   96    92    94    1
   97    94    95    1
   98    66    96    1
   99    92    96    1
  100    96    97    1
  101    96    98    1
  102    98    99    1
  103    85   100    1
  104    98   100    1
  105    98   101    1
  106   101   102    1
  107   101   103    1
  108   101   104    1
  109   104   105    1
  110   106   107    1
  111    12   108    1
  112   106   108    1
  113   106   109    1
  114   109   110    1
  115   109   111    1
  116   111   112    1
  117   109   113    1
  118   113   114    1
  119   113   115    1
  120   115   116    1
  121    87   117    1
  122   113   117    1
  123   117   118    1
  124   117   119    1
  125   119   120    1
  126   106   121    1
  127   119   121    1
  128   119   122    1
  129   122   123    1
  130   122   124    1
  131   122   125    1
  132   125   126    1
  133   127   128    1
  134   127   129    2
  135   127   130    1
  136   130   131    1
  137   130   132    1
  138   130   133    1
  139   133   134    1
  140   133   135    1
  141   133   136    1
  142   136   137    1
  143   136   138    1
  144   136   139    1
  145   139   140    1
  146   139   141    1
  147   139   142    1
  148   142   143    1
  149   142   144    1
  150   142   145    1
  151   145   146    1
  152   145   147    1
  153   145   148    1
  154   148   149    1
  155   148   150    1
  156   148   151    1
@<TRIPOS>SUBSTRUCTURE
       1 MOL1            1 RESIDUE      1      MOL     
       2 MOL1          151 RESIDUE      1      MOL     
@<SCITEGIC>MOL_PROPERTY
VM2 Rank
SciTegic.value.IntegerValue
5

@<SCITEGIC>MOL_PROPERTY
Conf_Id
SciTegic.value.IntegerValue
24515

@<SCITEGIC>MOL_PROPERTY
Probability
SciTegic.value.DoubleValue
1.97

@<SCITEGIC>MOL_PROPERTY
Sum Probability
SciTegic.value.DoubleValue
15.61

@<SCITEGIC>MOL_PROPERTY
Delta G
SciTegic.value.DoubleValue
0.421

@<SCITEGIC>MOL_PROPERTY
G
SciTegic.value.DoubleValue
505.240

@<SCITEGIC>MOL_PROPERTY
E
SciTegic.value.DoubleValue
307.919

@<SCITEGIC>MOL_PROPERTY
-TS
SciTegic.value.DoubleValue
197.321

@<SCITEGIC>MOL_PROPERTY
U+W
SciTegic.value.DoubleValue
174.676

@<SCITEGIC>MOL_PROPERTY
U
SciTegic.value.DoubleValue
248.410

@<SCITEGIC>MOL_PROPERTY
W
SciTegic.value.DoubleValue
-73.733

@<SCITEGIC>MOL_PROPERTY
W(PB)
SciTegic.value.DoubleValue
-79.902

@<SCITEGIC>MOL_PROPERTY
W(SA)
SciTegic.value.DoubleValue
6.169

@<SCITEGIC>MOL_PROPERTY
Valence
SciTegic.value.DoubleValue
151.146

@<SCITEGIC>MOL_PROPERTY
Coulomb
SciTegic.value.DoubleValue
125.485

@<SCITEGIC>MOL_PROPERTY
VdW
SciTegic.value.DoubleValue
-28.221

@<SCITEGIC>MOL_PROPERTY
VdW6
SciTegic.value.DoubleValue
-185.242

@<SCITEGIC>MOL_PROPERTY
VdW12
SciTegic.value.DoubleValue
157.021

@<SCITEGIC>MOL_PROPERTY
Bond
SciTegic.value.DoubleValue
4.477

@<SCITEGIC>MOL_PROPERTY
Angle
SciTegic.value.DoubleValue
11.214

@<SCITEGIC>MOL_PROPERTY
Pdih
SciTegic.value.DoubleValue
135.455

@<SCITEGIC>MOL_PROPERTY
Idih
SciTegic.value.DoubleValue
0.000

@<SCITEGIC>MOL_PROPERTY
Tether
SciTegic.value.DoubleValue
0.000

@<TRIPOS>MOLECULE
CD_guest-8_vm2_rndm.mol2 : vm2 host+ligand conformer 6
         151         156           2
SMALL
USER_CHARGES
 
@<TRIPOS>ATOM
       1    C1      16.304014   15.201648   21.547830 C.3        1 MOL1         0.2972
       2    H1      15.220583   15.056736   21.644948 H          1 MOL1         0.0751
       3    O1      16.631820   16.576452   21.258895 O.3        1 MOL1        -0.3740
       4    C2      17.018269   14.766586   22.852318 C.3        1 MOL1         0.1003
       5    H2      16.807963   13.698675   22.995959 H          1 MOL1         0.0783
       6    O2      16.540007   15.491285   23.992720 O.3        1 MOL1        -0.5519
       7    H3      17.201516   15.301543   24.696350 H          1 MOL1         0.3769
       8    C3      18.549005   14.929821   22.727583 C.3        1 MOL1         0.1053
       9    H4      18.780085   15.999552   22.646207 H          1 MOL1         0.0783
      10    O3      19.172292   14.376672   23.892579 O.3        1 MOL1        -0.5519
      11    H5      20.104154   14.162348   23.644037 H          1 MOL1         0.3769
      12    C4      19.085875   14.225678   21.458587 C.3        1 MOL1         0.1018
      13    H6      19.093454   13.142222   21.638331 H          1 MOL1         0.0783
      14    C5      18.241134   14.550785   20.194473 C.3        1 MOL1         0.1043
      15    H7      18.434257   15.595407   19.917070 H          1 MOL1         0.0783
      16    O4      16.827884   14.386158   20.477973 O.3        1 MOL1        -0.3740
      17    C6      18.601782   13.676364   18.969833 C.3        1 MOL1         0.0138
      18    H8      19.590131   13.984195   18.602195 H          1 MOL1         0.0794
      19    H9      17.877937   13.880037   18.169345 H          1 MOL1         0.0794
      20    O5      18.615544   12.278427   19.287263 O.3        1 MOL1        -0.5486
      21    H10     18.785385   11.786149   18.454707 H          1 MOL1         0.3769
      22    C7      14.797522   20.305316   20.906266 C.3        1 MOL1         0.2972
      23    H11     14.114207   21.131008   20.669690 H          1 MOL1         0.0751
      24    O6      16.057492   20.783792   21.410216 O.3        1 MOL1        -0.3740
      25    C8      14.178278   19.373984   21.978884 C.3        1 MOL1         0.1003
      26    H12     13.230535   18.993672   21.576174 H          1 MOL1         0.0783
      27    O7      13.924753   20.086138   23.199071 O.3        1 MOL1        -0.5519
      28    H13     13.668014   19.389194   23.843765 H          1 MOL1         0.3769
      29    C9      15.096704   18.161162   22.266705 C.3        1 MOL1         0.1053
      30    H14     16.005090   18.532349   22.762071 H          1 MOL1         0.0783
      31    O8      14.407253   17.252693   23.133325 O.3        1 MOL1        -0.5519
      32    H15     15.095014   16.636201   23.488726 H          1 MOL1         0.3769
      33    C10     15.522505   17.445817   20.955594 C.3        1 MOL1         0.1018
      34    H16     14.672006   16.886076   20.544218 H          1 MOL1         0.0783
      35    C11     16.022688   18.449491   19.883766 C.3        1 MOL1         0.1043
      36    H17     16.983814   18.861698   20.213908 H          1 MOL1         0.0783
      37    O9      15.056825   19.517377   19.725202 O.3        1 MOL1        -0.3740
      38    C12     16.236699   17.800036   18.498520 C.3        1 MOL1         0.0138
      39    H18     16.967320   16.985918   18.591597 H          1 MOL1         0.0794
      40    H19     16.665049   18.550093   17.820265 H          1 MOL1         0.0794
      41    O10     15.004931   17.299069   17.971065 O.3        1 MOL1        -0.5486
      42    H20     14.370504   18.049159   18.007342 H          1 MOL1         0.3769
      43    C13     18.390124   24.156539   21.709342 C.3        1 MOL1         0.2972
      44    H21     18.810122   25.167259   21.787903 H          1 MOL1         0.0751
      45    O11     19.419828   23.161204   21.540199 O.3        1 MOL1        -0.3740
      46    C14     17.576358   23.825596   22.984209 C.3        1 MOL1         0.1003
      47    H22     16.755567   24.551744   23.048142 H          1 MOL1         0.0783
      48    O12     18.391525   23.929401   24.160046 O.3        1 MOL1        -0.5519
      49    H23     17.849680   23.525953   24.874749 H          1 MOL1         0.3769
      50    C15     16.955944   22.413624   22.888462 C.3        1 MOL1         0.1053
      51    H24     17.774295   21.684664   22.936151 H          1 MOL1         0.0783
      52    O13     16.054142   22.202225   23.981716 O.3        1 MOL1        -0.5519
      53    H25     15.523372   21.400368   23.753740 H          1 MOL1         0.3769
      54    C16     16.193272   22.208213   21.555834 C.3        1 MOL1         0.1018
      55    H26     15.218213   22.707067   21.635917 H          1 MOL1         0.0783
      56    C17     16.965120   22.740792   20.314752 C.3        1 MOL1         0.1043
      57    H27     17.790935   22.048730   20.102697 H          1 MOL1         0.0783
      58    O14     17.491665   24.064017   20.584853 O.3        1 MOL1        -0.3740
      59    C18     16.098951   22.841713   19.039215 C.3        1 MOL1         0.0138
      60    H28     15.784720   21.835585   18.734190 H          1 MOL1         0.0794
      61    H29     16.715625   23.248755   18.226672 H          1 MOL1         0.0794
      62    O15     14.954895   23.672801   19.256176 O.3        1 MOL1        -0.5486
      63    H30     15.301322   24.545319   19.548049 H          1 MOL1         0.3769
      64    C19     23.476578   22.687799   20.856592 C.3        1 MOL1         0.2972
      65    H31     24.530260   22.797346   20.569481 H          1 MOL1         0.0751
      66    O16     23.163813   21.322322   21.198050 O.3        1 MOL1        -0.3740
      67    C20     23.126133   23.617093   22.051078 C.3        1 MOL1         0.1003
      68    H32     23.291944   24.649399   21.717668 H          1 MOL1         0.0783
      69    O17     23.982947   23.352830   23.172824 O.3        1 MOL1        -0.5519
      70    H33     23.765907   22.441602   23.492501 H          1 MOL1         0.3769
      71    C21     21.625894   23.477420   22.426401 C.3        1 MOL1         0.1053
      72    H34     21.466513   22.464757   22.822521 H          1 MOL1         0.0783
      73    O18     21.252254   24.449145   23.411956 O.3        1 MOL1        -0.5519
      74    H35     20.331546   24.223857   23.693757 H          1 MOL1         0.3769
      75    C22     20.721352   23.659383   21.179620 C.3        1 MOL1         0.1018
      76    H36     20.693131   24.722655   20.906595 H          1 MOL1         0.0783
      77    C23     21.208426   22.845289   19.952041 C.3        1 MOL1         0.1043
      78    H37     21.010175   21.783895   20.139545 H          1 MOL1         0.0783
      79    O19     22.627700   23.060426   19.751866 O.3        1 MOL1        -0.3740
      80    C24     20.491084   23.232135   18.640036 C.3        1 MOL1         0.0138
      81    H38     19.412792   23.067577   18.756049 H          1 MOL1         0.0794
      82    H39     20.840431   22.566521   17.839272 H          1 MOL1         0.0794
      83    O20     20.746797   24.597481   18.297993 O.3        1 MOL1        -0.5486
      84    H40     21.724881   24.696353   18.293405 H          1 MOL1         0.3769
      85    C25     24.933244   17.668756   22.016190 C.3        1 MOL1         0.2972
      86    H41     25.608367   16.843851   22.276878 H          1 MOL1         0.0751
      87    O21     23.689495   17.184087   21.466899 O.3        1 MOL1        -0.3740
      88    C26     24.632194   18.531423   23.269714 C.3        1 MOL1         0.1003
      89    H42     25.585405   18.951605   23.615634 H          1 MOL1         0.0783
      90    O22     24.081353   17.708812   24.310771 O.3        1 MOL1        -0.5519
      91    H43     23.519616   18.284717   24.890941 H          1 MOL1         0.3769
      92    C27     23.700206   19.717932   22.908417 C.3        1 MOL1         0.1053
      93    H44     22.716998   19.313185   22.640824 H          1 MOL1         0.0783
      94    O23     23.576025   20.609094   24.024935 O.3        1 MOL1        -0.5519
      95    H45     22.990579   20.159819   24.689476 H          1 MOL1         0.3769
      96    C28     24.246817   20.509912   21.690880 C.3        1 MOL1         0.1018
      97    H46     25.094358   21.121996   22.026871 H          1 MOL1         0.0783
      98    C29     24.695258   19.586959   20.523124 C.3        1 MOL1         0.1043
      99    H47     23.796945   19.155636   20.061650 H          1 MOL1         0.0783
     100    O24     25.543717   18.527470   21.030309 O.3        1 MOL1        -0.3740
     101    C30     25.477273   20.324303   19.413307 C.3        1 MOL1         0.0138
     102    H48     24.811670   21.050404   18.928002 H          1 MOL1         0.0794
     103    H49     25.775382   19.594716   18.648452 H          1 MOL1         0.0794
     104    O25     26.629255   20.986729   19.943142 O.3        1 MOL1        -0.5486
     105    H50     27.165765   20.292514   20.386563 H          1 MOL1         0.3769
     106    C31     21.437820   13.780989   20.932571 C.3        1 MOL1         0.2972
     107    H51     21.016333   12.795686   20.695605 H          1 MOL1         0.0751
     108    O26     20.409365   14.746645   21.233979 O.3        1 MOL1        -0.3740
     109    C32     22.410685   13.696143   22.134951 C.3        1 MOL1         0.1003
     110    H52     23.240923   13.041173   21.840012 H          1 MOL1         0.0783
     111    O27     21.772196   13.151945   23.296702 O.3        1 MOL1        -0.5519
     112    H53     22.437859   13.250868   24.014474 H          1 MOL1         0.3769
     113    C33     22.995687   15.089778   22.463076 C.3        1 MOL1         0.1053
     114    H54     22.175768   15.722302   22.830502 H          1 MOL1         0.0783
     115    O28     23.991284   14.949868   23.483043 O.3        1 MOL1        -0.5519
     116    H55     24.110446   15.852675   23.870553 H          1 MOL1         0.3769
     117    C34     23.600574   15.769655   21.203412 C.3        1 MOL1         0.1018
     118    H56     24.586128   15.336645   20.986805 H          1 MOL1         0.0783
     119    C35     22.701140   15.626773   19.943405 C.3        1 MOL1         0.1043
     120    H57     21.854110   16.317081   20.043000 H          1 MOL1         0.0783
     121    O29     22.202745   14.272539   19.813977 O.3        1 MOL1        -0.3740
     122    C36     23.449442   15.975203   18.637323 C.3        1 MOL1         0.0138
     123    H58     23.839328   16.999346   18.708851 H          1 MOL1         0.0794
     124    H59     22.734469   15.951264   17.804009 H          1 MOL1         0.0794
     125    O30     24.520145   15.056788   18.398948 O.3        1 MOL1        -0.5486
     126    H60     24.121015   14.159251   18.442135 H          1 MOL1         0.3769
     127    C1      20.904297   18.516881   25.598622 C.2        1 MOL1         0.6168
     128    O1      22.015148   19.009315   25.674890 O.co2      1 MOL1        -0.6703
     129    O2      20.196004   18.290093   26.559525 O.co2      1 MOL1        -0.6703
     130    C2      20.365199   18.192177   24.209542 C.3        1 MOL1        -0.1963
     131    H1      19.651452   17.366849   24.308708 H          1 MOL1         0.0750
     132    H2      21.199111   17.826527   23.602157 H          1 MOL1         0.0750
     133    C3      19.681137   19.410067   23.537102 C.3        1 MOL1        -0.1860
     134    H3      18.823964   19.712312   24.154194 H          1 MOL1         0.0752
     135    H4      20.371092   20.265102   23.528658 H          1 MOL1         0.0752
     136    C4      19.188659   19.127823   22.099141 C.3        1 MOL1        -0.1858
     137    H5      18.554142   19.963126   21.783944 H          1 MOL1         0.0752
     138    H6      18.555226   18.233120   22.087944 H          1 MOL1         0.0752
     139    C5      20.337651   18.980992   21.079615 C.3        1 MOL1        -0.1858
     140    H7      21.020766   19.828528   21.195580 H          1 MOL1         0.0752
     141    H8      20.916203   18.072703   21.289327 H          1 MOL1         0.0752
     142    C6      19.815531   18.946156   19.627947 C.3        1 MOL1        -0.1858
     143    H9      19.132880   19.790368   19.462414 H          1 MOL1         0.0752
     144    H10     19.236866   18.026114   19.472932 H          1 MOL1         0.0752
     145    C7      20.963033   19.023730   18.600786 C.3        1 MOL1        -0.1834
     146    H11     21.534270   19.950103   18.747806 H          1 MOL1         0.0752
     147    H12     21.661307   18.196135   18.762532 H          1 MOL1         0.0752
     148    C8      20.431671   18.972434   17.155338 C.3        1 MOL1        -0.2849
     149    H13     19.752943   19.812045   16.957091 H          1 MOL1         0.0764
     150    H14     21.259568   19.028315   16.436967 H          1 MOL1         0.0764
     151    H15     19.885016   18.038410   16.971567 H          1 MOL1         0.0764
@<TRIPOS>BOND
    1     1     2    1
    2     1     3    1
    3     1     4    1
    4     4     5    1
    5     4     6    1
    6     6     7    1
    7     4     8    1
    8     8     9    1
    9     8    10    1
   10    10    11    1
   11     8    12    1
   12    12    13    1
   13    12    14    1
   14    14    15    1
   15     1    16    1
   16    14    16    1
   17    14    17    1
   18    17    18    1
   19    17    19    1
   20    17    20    1
   21    20    21    1
   22    22    23    1
   23    22    24    1
   24    22    25    1
   25    25    26    1
   26    25    27    1
   27    27    28    1
   28    25    29    1
   29    29    30    1
   30    29    31    1
   31    31    32    1
   32     3    33    1
   33    29    33    1
   34    33    34    1
   35    33    35    1
   36    35    36    1
   37    22    37    1
   38    35    37    1
   39    35    38    1
   40    38    39    1
   41    38    40    1
   42    38    41    1
   43    41    42    1
   44    43    44    1
   45    43    45    1
   46    43    46    1
   47    46    47    1
   48    46    48    1
   49    48    49    1
   50    46    50    1
   51    50    51    1
   52    50    52    1
   53    52    53    1
   54    24    54    1
   55    50    54    1
   56    54    55    1
   57    54    56    1
   58    56    57    1
   59    43    58    1
   60    56    58    1
   61    56    59    1
   62    59    60    1
   63    59    61    1
   64    59    62    1
   65    62    63    1
   66    64    65    1
   67    64    66    1
   68    64    67    1
   69    67    68    1
   70    67    69    1
   71    69    70    1
   72    67    71    1
   73    71    72    1
   74    71    73    1
   75    73    74    1
   76    45    75    1
   77    71    75    1
   78    75    76    1
   79    75    77    1
   80    77    78    1
   81    64    79    1
   82    77    79    1
   83    77    80    1
   84    80    81    1
   85    80    82    1
   86    80    83    1
   87    83    84    1
   88    85    86    1
   89    85    87    1
   90    85    88    1
   91    88    89    1
   92    88    90    1
   93    90    91    1
   94    88    92    1
   95    92    93    1
   96    92    94    1
   97    94    95    1
   98    66    96    1
   99    92    96    1
  100    96    97    1
  101    96    98    1
  102    98    99    1
  103    85   100    1
  104    98   100    1
  105    98   101    1
  106   101   102    1
  107   101   103    1
  108   101   104    1
  109   104   105    1
  110   106   107    1
  111    12   108    1
  112   106   108    1
  113   106   109    1
  114   109   110    1
  115   109   111    1
  116   111   112    1
  117   109   113    1
  118   113   114    1
  119   113   115    1
  120   115   116    1
  121    87   117    1
  122   113   117    1
  123   117   118    1
  124   117   119    1
  125   119   120    1
  126   106   121    1
  127   119   121    1
  128   119   122    1
  129   122   123    1
  130   122   124    1
  131   122   125    1
  132   125   126    1
  133   127   128    1
  134   127   129    2
  135   127   130    1
  136   130   131    1
  137   130   132    1
  138   130   133    1
  139   133   134    1
  140   133   135    1
  141   133   136    1
  142   136   137    1
  143   136   138    1
  144   136   139    1
  145   139   140    1
  146   139   141    1
  147   139   142    1
  148   142   143    1
  149   142   144    1
  150   142   145    1
  151   145   146    1
  152   145   147    1
  153   145   148    1
  154   148   149    1
  155   148   150    1
  156   148   151    1
@<TRIPOS>SUBSTRUCTURE
       1 MOL1            1 RESIDUE      1      MOL     
       2 MOL1          151 RESIDUE      1      MOL     
@<SCITEGIC>MOL_PROPERTY
VM2 Rank
SciTegic.value.IntegerValue
6

@<SCITEGIC>MOL_PROPERTY
Conf_Id
SciTegic.value.IntegerValue
21906

@<SCITEGIC>MOL_PROPERTY
Probability
SciTegic.value.DoubleValue
1.94

@<SCITEGIC>MOL_PROPERTY
Sum Probability
SciTegic.value.DoubleValue
17.54

@<SCITEGIC>MOL_PROPERTY
Delta G
SciTegic.value.DoubleValue
0.431

@<SCITEGIC>MOL_PROPERTY
G
SciTegic.value.DoubleValue
505.250

@<SCITEGIC>MOL_PROPERTY
E
SciTegic.value.DoubleValue
308.581

@<SCITEGIC>MOL_PROPERTY
-TS
SciTegic.value.DoubleValue
196.669

@<SCITEGIC>MOL_PROPERTY
U+W
SciTegic.value.DoubleValue
175.338

@<SCITEGIC>MOL_PROPERTY
U
SciTegic.value.DoubleValue
249.584

@<SCITEGIC>MOL_PROPERTY
W
SciTegic.value.DoubleValue
-74.246

@<SCITEGIC>MOL_PROPERTY
W(PB)
SciTegic.value.DoubleValue
-80.436

@<SCITEGIC>MOL_PROPERTY
W(SA)
SciTegic.value.DoubleValue
6.190

@<SCITEGIC>MOL_PROPERTY
Valence
SciTegic.value.DoubleValue
150.080

@<SCITEGIC>MOL_PROPERTY
Coulomb
SciTegic.value.DoubleValue
126.017

@<SCITEGIC>MOL_PROPERTY
VdW
SciTegic.value.DoubleValue
-26.512

@<SCITEGIC>MOL_PROPERTY
VdW6
SciTegic.value.DoubleValue
-184.172

@<SCITEGIC>MOL_PROPERTY
VdW12
SciTegic.value.DoubleValue
157.660

@<SCITEGIC>MOL_PROPERTY
Bond
SciTegic.value.DoubleValue
4.537

@<SCITEGIC>MOL_PROPERTY
Angle
SciTegic.value.DoubleValue
11.559

@<SCITEGIC>MOL_PROPERTY
Pdih
SciTegic.value.DoubleValue
133.982

@<SCITEGIC>MOL_PROPERTY
Idih
SciTegic.value.DoubleValue
0.001

@<SCITEGIC>MOL_PROPERTY
Tether
SciTegic.value.DoubleValue
0.000

@<TRIPOS>MOLECULE
CD_guest-8_vm2_rndm.mol2 : vm2 host+ligand conformer 7
         151         156           2
SMALL
USER_CHARGES
 
@<TRIPOS>ATOM
       1    C1      16.371826   15.304237   20.693391 C.3        1 MOL1         0.2972
       2    H1      15.331731   15.167891   20.370549 H          1 MOL1         0.0751
       3    O1      16.579230   16.603808   21.279092 O.3        1 MOL1        -0.3740
       4    C2      16.762784   14.225725   21.738461 C.3        1 MOL1         0.1003
       5    H2      16.609528   13.245365   21.268942 H          1 MOL1         0.0783
       6    O2      15.948233   14.318231   22.915629 O.3        1 MOL1        -0.5519
       7    H3      16.361008   13.692678   23.552726 H          1 MOL1         0.3769
       8    C3      18.256022   14.337104   22.129911 C.3        1 MOL1         0.1053
       9    H4      18.396449   15.277462   22.681388 H          1 MOL1         0.0783
      10    O3      18.617943   13.225109   22.958546 O.3        1 MOL1        -0.5519
      11    H5      19.567450   13.352856   23.207271 H          1 MOL1         0.3769
      12    C4      19.162503   14.375259   20.875416 C.3        1 MOL1         0.1018
      13    H6      19.186194   13.379942   20.412266 H          1 MOL1         0.0783
      14    C5      18.663463   15.406772   19.831555 C.3        1 MOL1         0.1043
      15    H7      18.808410   16.413719   20.242327 H          1 MOL1         0.0783
      16    O4      17.258969   15.177335   19.562124 O.3        1 MOL1        -0.3740
      17    C6      19.412931   15.320619   18.483291 C.3        1 MOL1         0.0138
      18    H8      20.480424   15.510196   18.649903 H          1 MOL1         0.0794
      19    H9      19.039282   16.112687   17.820994 H          1 MOL1         0.0794
      20    O5      19.228981   14.038737   17.875484 O.3        1 MOL1        -0.5486
      21    H10     18.257335   13.897584   17.830397 H          1 MOL1         0.3769
      22    C7      14.663413   20.258272   21.767015 C.3        1 MOL1         0.2972
      23    H11     13.928556   21.066949   21.864096 H          1 MOL1         0.0751
      24    O6      16.012829   20.761562   21.733060 O.3        1 MOL1        -0.3740
      25    C8      14.527069   19.273102   22.955974 C.3        1 MOL1         0.1003
      26    H12     13.506458   18.869714   22.928405 H          1 MOL1         0.0783
      27    O7      14.736423   19.933776   24.211303 O.3        1 MOL1        -0.5519
      28    H13     14.795944   19.203234   24.867509 H          1 MOL1         0.3769
      29    C9      15.507790   18.085997   22.816944 C.3        1 MOL1         0.1053
      30    H14     16.529195   18.465460   22.952401 H          1 MOL1         0.0783
      31    O8      15.212234   17.105902   23.819445 O.3        1 MOL1        -0.5519
      32    H15     15.652594   16.268294   23.533082 H          1 MOL1         0.3769
      33    C10     15.407969   17.430713   21.418165 C.3        1 MOL1         0.1018
      34    H16     14.484036   16.838044   21.383876 H          1 MOL1         0.0783
      35    C11     15.407038   18.474187   20.264739 C.3        1 MOL1         0.1043
      36    H17     16.412186   18.910190   20.186746 H          1 MOL1         0.0783
      37    O9      14.438419   19.515111   20.550602 O.3        1 MOL1        -0.3740
      38    C12     15.047526   17.875323   18.886712 C.3        1 MOL1         0.0138
      39    H18     15.825627   17.160661   18.589575 H          1 MOL1         0.0794
      40    H19     15.047196   18.682243   18.141677 H          1 MOL1         0.0794
      41    O10     13.770394   17.231099   18.921188 O.3        1 MOL1        -0.5486
      42    H20     13.128210   17.912059   19.221420 H          1 MOL1         0.3769
      43    C13     18.346005   24.158844   21.446027 C.3        1 MOL1         0.2972
      44    H21     18.742102   25.178042   21.355273 H          1 MOL1         0.0751
      45    O11     19.393689   23.168730   21.390710 O.3        1 MOL1        -0.3740
      46    C14     17.581710   24.006916   22.784236 C.3        1 MOL1         0.1003
      47    H22     16.747096   24.719830   22.767516 H          1 MOL1         0.0783
      48    O12     18.424014   24.296947   23.907756 O.3        1 MOL1        -0.5519
      49    H23     17.907158   23.994078   24.688085 H          1 MOL1         0.3769
      50    C15     16.989671   22.586604   22.919548 C.3        1 MOL1         0.1053
      51    H24     17.823787   21.880458   23.024039 H          1 MOL1         0.0783
      52    O13     16.150336   22.528271   24.079186 O.3        1 MOL1        -0.5519
      53    H25     15.767211   21.615992   24.107505 H          1 MOL1         0.3769
      54    C16     16.173238   22.190716   21.663722 C.3        1 MOL1         0.1018
      55    H26     15.211006   22.719244   21.684345 H          1 MOL1         0.0783
      56    C17     16.905588   22.522223   20.333550 C.3        1 MOL1         0.1043
      57    H27     17.732686   21.815741   20.192569 H          1 MOL1         0.0783
      58    O14     17.408916   23.881381   20.383721 O.3        1 MOL1        -0.3740
      59    C18     15.973067   22.418697   19.109287 C.3        1 MOL1         0.0138
      60    H28     15.157827   23.147373   19.210932 H          1 MOL1         0.0794
      61    H29     15.525548   21.417044   19.077061 H          1 MOL1         0.0794
      62    O15     16.712871   22.657558   17.910284 O.3        1 MOL1        -0.5486
      63    H30     17.194686   23.503479   18.050399 H          1 MOL1         0.3769
      64    C19     23.454477   22.669721   20.708635 C.3        1 MOL1         0.2972
      65    H31     24.502998   22.775414   20.404618 H          1 MOL1         0.0751
      66    O16     23.164966   21.321309   21.131737 O.3        1 MOL1        -0.3740
      67    C20     23.106633   23.672780   21.842417 C.3        1 MOL1         0.1003
      68    H32     23.270667   24.680575   21.440113 H          1 MOL1         0.0783
      69    O17     23.969367   23.485626   22.975097 O.3        1 MOL1        -0.5519
      70    H33     23.710840   22.625104   23.390248 H          1 MOL1         0.3769
      71    C21     21.608945   23.562944   22.236177 C.3        1 MOL1         0.1053
      72    H34     21.451691   22.587159   22.716590 H          1 MOL1         0.0783
      73    O18     21.251126   24.617093   23.138548 O.3        1 MOL1        -0.5519
      74    H35     20.320467   24.442216   23.424042 H          1 MOL1         0.3769
      75    C22     20.692534   23.642930   20.986973 C.3        1 MOL1         0.1018
      76    H36     20.659184   24.681845   20.633291 H          1 MOL1         0.0783
      77    C23     21.177951   22.738491   19.824051 C.3        1 MOL1         0.1043
      78    H37     21.003197   21.693301   20.102385 H          1 MOL1         0.0783
      79    O19     22.590933   22.961461   19.590811 O.3        1 MOL1        -0.3740
      80    C24     20.433354   22.996943   18.496079 C.3        1 MOL1         0.0138
      81    H38     19.366675   22.783873   18.638395 H          1 MOL1         0.0794
      82    H39     20.808881   22.294535   17.739923 H          1 MOL1         0.0794
      83    O20     20.613567   24.346261   18.055713 O.3        1 MOL1        -0.5486
      84    H40     21.584739   24.489617   18.009644 H          1 MOL1         0.3769
      85    C25     24.915922   17.778469   22.370335 C.3        1 MOL1         0.2972
      86    H41     25.578032   16.985807   22.741227 H          1 MOL1         0.0751
      87    O21     23.707865   17.241120   21.794792 O.3        1 MOL1        -0.3740
      88    C26     24.532397   18.740749   23.521771 C.3        1 MOL1         0.1003
      89    H42     25.457662   19.205331   23.886170 H          1 MOL1         0.0783
      90    O22     23.929276   17.999784   24.594361 O.3        1 MOL1        -0.5519
      91    H43     23.248289   18.582393   25.019608 H          1 MOL1         0.3769
      92    C27     23.610710   19.873415   22.996850 C.3        1 MOL1         0.1053
      93    H44     22.656207   19.426816   22.694230 H          1 MOL1         0.0783
      94    O23     23.384581   20.844213   24.027304 O.3        1 MOL1        -0.5519
      95    H45     22.717351   20.444382   24.645568 H          1 MOL1         0.3769
      96    C28     24.226841   20.568694   21.751507 C.3        1 MOL1         0.1018
      97    H46     25.052846   21.214700   22.077141 H          1 MOL1         0.0783
      98    C29     24.745584   19.550506   20.697311 C.3        1 MOL1         0.1043
      99    H47     23.881061   19.071630   20.217885 H          1 MOL1         0.0783
     100    O24     25.576198   18.559970   21.354118 O.3        1 MOL1        -0.3740
     101    C30     25.601094   20.203708   19.592465 C.3        1 MOL1         0.0138
     102    H48     26.477865   20.683861   20.047216 H          1 MOL1         0.0794
     103    H49     25.013039   20.980019   19.086174 H          1 MOL1         0.0794
     104    O25     26.005345   19.213519   18.644837 O.3        1 MOL1        -0.5486
     105    H50     26.366882   18.465383   19.171691 H          1 MOL1         0.3769
     106    C31     21.518488   13.816963   21.228416 C.3        1 MOL1         0.2972
     107    H51     21.125560   12.811045   21.034377 H          1 MOL1         0.0751
     108    O26     20.464487   14.798547   21.319319 O.3        1 MOL1        -0.3740
     109    C32     22.318366   13.825552   22.553043 C.3        1 MOL1         0.1003
     110    H52     23.167535   13.140634   22.430644 H          1 MOL1         0.0783
     111    O27     21.507756   13.383191   23.650672 O.3        1 MOL1        -0.5519
     112    H53     22.042577   13.586451   24.450830 H          1 MOL1         0.3769
     113    C33     22.880095   15.235417   22.844448 C.3        1 MOL1         0.1053
     114    H54     22.028343   15.894657   23.056028 H          1 MOL1         0.0783
     115    O28     23.738724   15.174634   23.989059 O.3        1 MOL1        -0.5519
     116    H55     23.863734   16.109695   24.288245 H          1 MOL1         0.3769
     117    C34     23.647275   15.813562   21.623577 C.3        1 MOL1         0.1018
     118    H56     24.648282   15.365740   21.567733 H          1 MOL1         0.0783
     119    C35     22.913326   15.581517   20.274140 C.3        1 MOL1         0.1043
     120    H57     22.067697   16.277421   20.221608 H          1 MOL1         0.0783
     121    O29     22.424885   14.220178   20.181718 O.3        1 MOL1        -0.3740
     122    C36     23.814373   15.846549   19.047475 C.3        1 MOL1         0.0138
     123    H58     24.171610   16.884622   19.081308 H          1 MOL1         0.0794
     124    H59     23.211794   15.735582   18.136068 H          1 MOL1         0.0794
     125    O30     24.923467   14.943315   19.021171 O.3        1 MOL1        -0.5486
     126    H60     24.539162   14.039842   19.071077 H          1 MOL1         0.3769
     127    C1      20.613426   18.564178   25.308572 C.2        1 MOL1         0.6168
     128    O1      21.603031   19.253357   25.481128 O.co2      1 MOL1        -0.6703
     129    O2      19.941914   18.103876   26.210374 O.co2      1 MOL1        -0.6703
     130    C2      20.189293   18.275252   23.871889 C.3        1 MOL1        -0.1963
     131    H1      19.471688   17.446130   23.878716 H          1 MOL1         0.0750
     132    H2      21.074462   17.932800   23.328786 H          1 MOL1         0.0750
     133    C3      19.567767   19.513763   23.180115 C.3        1 MOL1        -0.1860
     134    H3      18.685324   19.826571   23.754229 H          1 MOL1         0.0752
     135    H4      20.276267   20.352632   23.220162 H          1 MOL1         0.0752
     136    C4      19.149728   19.266099   21.713844 C.3        1 MOL1        -0.1858
     137    H5      18.640216   20.166162   21.354537 H          1 MOL1         0.0752
     138    H6      18.420488   18.450203   21.665435 H          1 MOL1         0.0752
     139    C5      20.334355   18.951530   20.777154 C.3        1 MOL1        -0.1858
     140    H7      21.153864   19.648097   20.982134 H          1 MOL1         0.0752
     141    H8      20.715250   17.944711   20.987535 H          1 MOL1         0.0752
     142    C6      19.932117   19.065034   19.290996 C.3        1 MOL1        -0.1858
     143    H9      19.512262   20.061279   19.099292 H          1 MOL1         0.0752
     144    H10     19.137315   18.344410   19.062873 H          1 MOL1         0.0752
     145    C7      21.137492   18.834970   18.357323 C.3        1 MOL1        -0.1834
     146    H11     21.922973   19.570896   18.579788 H          1 MOL1         0.0752
     147    H12     21.567627   17.843447   18.542727 H          1 MOL1         0.0752
     148    C8      20.734840   18.947720   16.874217 C.3        1 MOL1        -0.2849
     149    H13     21.604830   18.786754   16.224706 H          1 MOL1         0.0764
     150    H14     19.974590   18.199794   16.615101 H          1 MOL1         0.0764
     151    H15     20.325864   19.942109   16.653294 H          1 MOL1         0.0764
@<TRIPOS>BOND
    1     1     2    1
    2     1     3    1
    3     1     4    1
    4     4     5    1
    5     4     6    1
    6     6     7    1
    7     4     8    1
    8     8     9    1
    9     8    10    1
   10    10    11    1
   11     8    12    1
   12    12    13    1
   13    12    14    1
   14    14    15    1
   15     1    16    1
   16    14    16    1
   17    14    17    1
   18    17    18    1
   19    17    19    1
   20    17    20    1
   21    20    21    1
   22    22    23    1
   23    22    24    1
   24    22    25    1
   25    25    26    1
   26    25    27    1
   27    27    28    1
   28    25    29    1
   29    29    30    1
   30    29    31    1
   31    31    32    1
   32     3    33    1
   33    29    33    1
   34    33    34    1
   35    33    35    1
   36    35    36    1
   37    22    37    1
   38    35    37    1
   39    35    38    1
   40    38    39    1
   41    38    40    1
   42    38    41    1
   43    41    42    1
   44    43    44    1
   45    43    45    1
   46    43    46    1
   47    46    47    1
   48    46    48    1
   49    48    49    1
   50    46    50    1
   51    50    51    1
   52    50    52    1
   53    52    53    1
   54    24    54    1
   55    50    54    1
   56    54    55    1
   57    54    56    1
   58    56    57    1
   59    43    58    1
   60    56    58    1
   61    56    59    1
   62    59    60    1
   63    59    61    1
   64    59    62    1
   65    62    63    1
   66    64    65    1
   67    64    66    1
   68    64    67    1
   69    67    68    1
   70    67    69    1
   71    69    70    1
   72    67    71    1
   73    71    72    1
   74    71    73    1
   75    73    74    1
   76    45    75    1
   77    71    75    1
   78    75    76    1
   79    75    77    1
   80    77    78    1
   81    64    79    1
   82    77    79    1
   83    77    80    1
   84    80    81    1
   85    80    82    1
   86    80    83    1
   87    83    84    1
   88    85    86    1
   89    85    87    1
   90    85    88    1
   91    88    89    1
   92    88    90    1
   93    90    91    1
   94    88    92    1
   95    92    93    1
   96    92    94    1
   97    94    95    1
   98    66    96    1
   99    92    96    1
  100    96    97    1
  101    96    98    1
  102    98    99    1
  103    85   100    1
  104    98   100    1
  105    98   101    1
  106   101   102    1
  107   101   103    1
  108   101   104    1
  109   104   105    1
  110   106   107    1
  111    12   108    1
  112   106   108    1
  113   106   109    1
  114   109   110    1
  115   109   111    1
  116   111   112    1
  117   109   113    1
  118   113   114    1
  119   113   115    1
  120   115   116    1
  121    87   117    1
  122   113   117    1
  123   117   118    1
  124   117   119    1
  125   119   120    1
  126   106   121    1
  127   119   121    1
  128   119   122    1
  129   122   123    1
  130   122   124    1
  131   122   125    1
  132   125   126    1
  133   127   128    1
  134   127   129    2
  135   127   130    1
  136   130   131    1
  137   130   132    1
  138   130   133    1
  139   133   134    1
  140   133   135    1
  141   133   136    1
  142   136   137    1
  143   136   138    1
  144   136   139    1
  145   139   140    1
  146   139   141    1
  147   139   142    1
  148   142   143    1
  149   142   144    1
  150   142   145    1
  151   145   146    1
  152   145   147    1
  153   145   148    1
  154   148   149    1
  155   148   150    1
  156   148   151    1
@<TRIPOS>SUBSTRUCTURE
       1 MOL1            1 RESIDUE      1      MOL     
       2 MOL1          151 RESIDUE      1      MOL     
@<SCITEGIC>MOL_PROPERTY
VM2 Rank
SciTegic.value.IntegerValue
7

@<SCITEGIC>MOL_PROPERTY
Conf_Id
SciTegic.value.IntegerValue
24516

@<SCITEGIC>MOL_PROPERTY
Probability
SciTegic.value.DoubleValue
1.82

@<SCITEGIC>MOL_PROPERTY
Sum Probability
SciTegic.value.DoubleValue
19.36

@<SCITEGIC>MOL_PROPERTY
Delta G
SciTegic.value.DoubleValue
0.470

@<SCITEGIC>MOL_PROPERTY
G
SciTegic.value.DoubleValue
505.289

@<SCITEGIC>MOL_PROPERTY
E
SciTegic.value.DoubleValue
307.904

@<SCITEGIC>MOL_PROPERTY
-TS
SciTegic.value.DoubleValue
197.385

@<SCITEGIC>MOL_PROPERTY
U+W
SciTegic.value.DoubleValue
174.661

@<SCITEGIC>MOL_PROPERTY
U
SciTegic.value.DoubleValue
246.794

@<SCITEGIC>MOL_PROPERTY
W
SciTegic.value.DoubleValue
-72.133

@<SCITEGIC>MOL_PROPERTY
W(PB)
SciTegic.value.DoubleValue
-78.281

@<SCITEGIC>MOL_PROPERTY
W(SA)
SciTegic.value.DoubleValue
6.148

@<SCITEGIC>MOL_PROPERTY
Valence
SciTegic.value.DoubleValue
152.182

@<SCITEGIC>MOL_PROPERTY
Coulomb
SciTegic.value.DoubleValue
123.145

@<SCITEGIC>MOL_PROPERTY
VdW
SciTegic.value.DoubleValue
-28.533

@<SCITEGIC>MOL_PROPERTY
VdW6
SciTegic.value.DoubleValue
-185.140

@<SCITEGIC>MOL_PROPERTY
VdW12
SciTegic.value.DoubleValue
156.607

@<SCITEGIC>MOL_PROPERTY
Bond
SciTegic.value.DoubleValue
4.462

@<SCITEGIC>MOL_PROPERTY
Angle
SciTegic.value.DoubleValue
11.111

@<SCITEGIC>MOL_PROPERTY
Pdih
SciTegic.value.DoubleValue
136.608

@<SCITEGIC>MOL_PROPERTY
Idih
SciTegic.value.DoubleValue
0.000

@<SCITEGIC>MOL_PROPERTY
Tether
SciTegic.value.DoubleValue
0.000

@<TRIPOS>MOLECULE
CD_guest-8_vm2_rndm.mol2 : vm2 host+ligand conformer 8
         151         156           2
SMALL
USER_CHARGES
 
@<TRIPOS>ATOM
       1    C1      16.353957   15.218228   21.548641 C.3        1 MOL1         0.2972
       2    H1      15.273086   15.073374   21.671094 H          1 MOL1         0.0751
       3    O1      16.671595   16.583396   21.206958 O.3        1 MOL1        -0.3740
       4    C2      17.096257   14.829382   22.851833 C.3        1 MOL1         0.1003
       5    H2      16.893978   13.765919   23.034464 H          1 MOL1         0.0783
       6    O2      16.637817   15.587512   23.978369 O.3        1 MOL1        -0.5519
       7    H3      17.317592   15.427208   24.671901 H          1 MOL1         0.3769
       8    C3      18.623667   14.994185   22.691208 C.3        1 MOL1         0.1053
       9    H4      18.849076   16.061875   22.573597 H          1 MOL1         0.0783
      10    O3      19.266958   14.479793   23.862477 O.3        1 MOL1        -0.5519
      11    H5      20.182534   14.222132   23.597159 H          1 MOL1         0.3769
      12    C4      19.141136   14.254639   21.432840 C.3        1 MOL1         0.1018
      13    H6      19.167774   13.176994   21.643483 H          1 MOL1         0.0783
      14    C5      18.265400   14.533386   20.178274 C.3        1 MOL1         0.1043
      15    H7      18.448785   15.566669   19.854689 H          1 MOL1         0.0783
      16    O4      16.860672   14.365865   20.498710 O.3        1 MOL1        -0.3740
      17    C6      18.591860   13.605623   18.987095 C.3        1 MOL1         0.0138
      18    H8      19.622958   13.793444   18.659019 H          1 MOL1         0.0794
      19    H9      17.930305   13.861881   18.148704 H          1 MOL1         0.0794
      20    O5      18.430732   12.229789   19.345004 O.3        1 MOL1        -0.5486
      21    H10     17.503307   12.134457   19.657034 H          1 MOL1         0.3769
      22    C7      14.801063   20.298996   20.878459 C.3        1 MOL1         0.2972
      23    H11     14.111165   21.120056   20.645004 H          1 MOL1         0.0751
      24    O6      16.054625   20.784793   21.391448 O.3        1 MOL1        -0.3740
      25    C8      14.186460   19.354560   21.941910 C.3        1 MOL1         0.1003
      26    H12     13.245011   18.966435   21.531948 H          1 MOL1         0.0783
      27    O7      13.918728   20.056439   23.165023 O.3        1 MOL1        -0.5519
      28    H13     13.667228   19.352500   23.804187 H          1 MOL1         0.3769
      29    C9      15.116813   18.150067   22.226711 C.3        1 MOL1         0.1053
      30    H14     16.019848   18.528491   22.726338 H          1 MOL1         0.0783
      31    O8      14.433439   17.232634   23.088657 O.3        1 MOL1        -0.5519
      32    H15     15.131681   16.642766   23.467817 H          1 MOL1         0.3769
      33    C10     15.553678   17.445503   20.912440 C.3        1 MOL1         0.1018
      34    H16     14.709904   16.879933   20.495284 H          1 MOL1         0.0783
      35    C11     16.046835   18.461387   19.848505 C.3        1 MOL1         0.1043
      36    H17     17.002733   18.881110   20.184597 H          1 MOL1         0.0783
      37    O9      15.071442   19.521022   19.693337 O.3        1 MOL1        -0.3740
      38    C12     16.272361   17.823436   18.459721 C.3        1 MOL1         0.0138
      39    H18     17.013222   17.018237   18.549561 H          1 MOL1         0.0794
      40    H19     16.692798   18.583138   17.787279 H          1 MOL1         0.0794
      41    O10     15.048423   17.310101   17.925924 O.3        1 MOL1        -0.5486
      42    H20     14.404684   18.052114   17.964015 H          1 MOL1         0.3769
      43    C13     18.366622   24.166056   21.738628 C.3        1 MOL1         0.2972
      44    H21     18.780002   25.178777   21.825883 H          1 MOL1         0.0751
      45    O11     19.404745   23.175852   21.590473 O.3        1 MOL1        -0.3740
      46    C14     17.529370   23.831767   22.997249 C.3        1 MOL1         0.1003
      47    H22     16.705525   24.555638   23.045866 H          1 MOL1         0.0783
      48    O12     18.321832   23.937109   24.188415 O.3        1 MOL1        -0.5519
      49    H23     17.767096   23.533181   24.892853 H          1 MOL1         0.3769
      50    C15     16.914731   22.418203   22.889214 C.3        1 MOL1         0.1053
      51    H24     17.733860   21.691748   22.954479 H          1 MOL1         0.0783
      52    O13     15.991503   22.204876   23.964039 O.3        1 MOL1        -0.5519
      53    H25     15.472634   21.396881   23.729748 H          1 MOL1         0.3769
      54    C16     16.180559   22.209651   21.541078 C.3        1 MOL1         0.1018
      55    H26     15.202028   22.704514   21.600691 H          1 MOL1         0.0783
      56    C17     16.975342   22.744985   20.316081 C.3        1 MOL1         0.1043
      57    H27     17.807943   22.056128   20.120892 H          1 MOL1         0.0783
      58    O14     17.491205   24.070128   20.596440 O.3        1 MOL1        -0.3740
      59    C18     16.134113   22.841906   19.023707 C.3        1 MOL1         0.0138
      60    H28     15.826745   21.834666   18.715305 H          1 MOL1         0.0794
      61    H29     16.766011   23.247660   18.222300 H          1 MOL1         0.0794
      62    O15     14.985287   23.672363   19.216553 O.3        1 MOL1        -0.5486
      63    H30     15.325223   24.545276   19.514825 H          1 MOL1         0.3769
      64    C19     23.475541   22.739437   20.951183 C.3        1 MOL1         0.2972
      65    H31     24.530394   22.866926   20.678506 H          1 MOL1         0.0751
      66    O16     23.176733   21.364638   21.269085 O.3        1 MOL1        -0.3740
      67    C20     23.101184   23.653431   22.149426 C.3        1 MOL1         0.1003
      68    H32     23.256569   24.690404   21.825479 H          1 MOL1         0.0783
      69    O17     23.953592   23.392601   23.274844 O.3        1 MOL1        -0.5519
      70    H33     23.736329   22.481805   23.595535 H          1 MOL1         0.3769
      71    C21     21.598902   23.492628   22.506829 C.3        1 MOL1         0.1053
      72    H34     21.445369   22.473583   22.888313 H          1 MOL1         0.0783
      73    O18     21.203678   24.448751   23.499139 O.3        1 MOL1        -0.5519
      74    H35     20.277429   24.218918   23.758202 H          1 MOL1         0.3769
      75    C22     20.708906   23.681855   21.250632 C.3        1 MOL1         0.1018
      76    H36     20.679983   24.747713   20.987956 H          1 MOL1         0.0783
      77    C23     21.217395   22.883057   20.021333 C.3        1 MOL1         0.1043
      78    H37     21.027385   21.817971   20.196648 H          1 MOL1         0.0783
      79    O19     22.636943   23.114411   19.840119 O.3        1 MOL1        -0.3740
      80    C24     20.512688   23.275175   18.704068 C.3        1 MOL1         0.0138
      81    H38     19.434986   23.097518   18.804287 H          1 MOL1         0.0794
      82    H39     20.879714   22.621444   17.901398 H          1 MOL1         0.0794
      83    O20     20.757504   24.646622   18.378789 O.3        1 MOL1        -0.5486
      84    H40     21.734429   24.755914   18.385613 H          1 MOL1         0.3769
      85    C25     24.934246   17.710100   22.120149 C.3        1 MOL1         0.2972
      86    H41     25.607208   16.886803   22.391381 H          1 MOL1         0.0751
      87    O21     23.697429   17.224689   21.559098 O.3        1 MOL1        -0.3740
      88    C26     24.614520   18.572365   23.367169 C.3        1 MOL1         0.1003
      89    H42     25.562579   18.988767   23.731254 H          1 MOL1         0.0783
      90    O22     24.042266   17.746585   24.394556 O.3        1 MOL1        -0.5519
      91    H43     23.469079   18.321322   24.964548 H          1 MOL1         0.3769
      92    C27     23.692431   19.761822   22.988436 C.3        1 MOL1         0.1053
      93    H44     22.710729   19.359063   22.711643 H          1 MOL1         0.0783
      94    O23     23.558020   20.654721   24.101716 O.3        1 MOL1        -0.5519
      95    H45     22.961768   20.207797   24.758435 H          1 MOL1         0.3769
      96    C28     24.253365   20.548256   21.771346 C.3        1 MOL1         0.1018
      97    H46     25.104955   21.155648   22.105992 H          1 MOL1         0.0783
      98    C29     24.701434   19.615750   20.611701 C.3        1 MOL1         0.1043
      99    H47     23.806502   19.185289   20.142307 H          1 MOL1         0.0783
     100    O24     25.552896   18.569161   21.141339 O.3        1 MOL1        -0.3740
     101    C30     25.505846   20.350320   19.519564 C.3        1 MOL1         0.0138
     102    H48     26.413854   20.779851   19.963492 H          1 MOL1         0.0794
     103    H49     24.903952   21.173898   19.114089 H          1 MOL1         0.0794
     104    O25     25.841627   19.439382   18.471070 O.3        1 MOL1        -0.5486
     105    H50     26.216564   18.643944   18.912282 H          1 MOL1         0.3769
     106    C31     21.494266   13.823847   20.877716 C.3        1 MOL1         0.2972
     107    H51     21.083172   12.842805   20.606748 H          1 MOL1         0.0751
     108    O26     20.452168   14.782660   21.157373 O.3        1 MOL1        -0.3740
     109    C32     22.431495   13.719579   22.107598 C.3        1 MOL1         0.1003
     110    H52     23.280497   13.085583   21.820223 H          1 MOL1         0.0783
     111    O27     21.770715   13.133620   23.235318 O.3        1 MOL1        -0.5519
     112    H53     22.417169   13.217029   23.972567 H          1 MOL1         0.3769
     113    C33     22.984547   15.113483   22.485425 C.3        1 MOL1         0.1053
     114    H54     22.142737   15.730952   22.828350 H          1 MOL1         0.0783
     115    O28     23.940007   14.973531   23.543209 O.3        1 MOL1        -0.5519
     116    H55     24.048317   15.877198   23.932303 H          1 MOL1         0.3769
     117    C34     23.631010   15.817734   21.261362 C.3        1 MOL1         0.1018
     118    H56     24.627182   15.395060   21.075030 H          1 MOL1         0.0783
     119    C35     22.781081   15.693832   19.965770 C.3        1 MOL1         0.1043
     120    H57     21.927235   16.377983   20.046555 H          1 MOL1         0.0783
     121    O29     22.294669   14.339239   19.794623 O.3        1 MOL1        -0.3740
     122    C36     23.576064   16.072063   18.695656 C.3        1 MOL1         0.0138
     123    H58     23.944437   17.102016   18.795005 H          1 MOL1         0.0794
     124    H59     22.896422   16.047382   17.833363 H          1 MOL1         0.0794
     125    O30     24.671606   15.175021   18.489938 O.3        1 MOL1        -0.5486
     126    H60     24.285980   14.270776   18.494010 H          1 MOL1         0.3769
     127    C1      20.851746   18.556126   25.622760 C.2        1 MOL1         0.6168
     128    O1      21.957667   19.056702   25.716457 O.co2      1 MOL1        -0.6703
     129    O2      20.132181   18.320142   26.573039 O.co2      1 MOL1        -0.6703
     130    C2      20.332824   18.235669   24.224908 C.3        1 MOL1        -0.1963
     131    H1      19.607442   17.419282   24.313004 H          1 MOL1         0.0750
     132    H2      21.172420   17.859446   23.631714 H          1 MOL1         0.0750
     133    C3      19.674169   19.460641   23.540538 C.3        1 MOL1        -0.1860
     134    H3      18.814831   19.777054   24.147367 H          1 MOL1         0.0752
     135    H4      20.376304   20.305545   23.537235 H          1 MOL1         0.0752
     136    C4      19.192866   19.181309   22.098283 C.3        1 MOL1        -0.1858
     137    H5      18.578064   20.027510   21.773136 H          1 MOL1         0.0752
     138    H6      18.541893   18.299234   22.083710 H          1 MOL1         0.0752
     139    C5      20.349085   19.008847   21.090679 C.3        1 MOL1        -0.1858
     140    H7      21.050185   19.840561   21.213589 H          1 MOL1         0.0752
     141    H8      20.905353   18.087679   21.305098 H          1 MOL1         0.0752
     142    C6      19.838739   18.987337   19.634307 C.3        1 MOL1        -0.1858
     143    H9      19.162636   19.836862   19.469277 H          1 MOL1         0.0752
     144    H10     19.255413   18.072130   19.468283 H          1 MOL1         0.0752
     145    C7      20.993230   19.066166   18.614991 C.3        1 MOL1        -0.1834
     146    H11     21.573770   19.984366   18.777283 H          1 MOL1         0.0752
     147    H12     21.682356   18.229240   18.768321 H          1 MOL1         0.0752
     148    C8      20.469119   19.040274   17.166135 C.3        1 MOL1        -0.2849
     149    H13     21.301936   19.096724   16.453441 H          1 MOL1         0.0764
     150    H14     19.913496   18.114808   16.966715 H          1 MOL1         0.0764
     151    H15     19.800903   19.889983   16.975458 H          1 MOL1         0.0764
@<TRIPOS>BOND
    1     1     2    1
    2     1     3    1
    3     1     4    1
    4     4     5    1
    5     4     6    1
    6     6     7    1
    7     4     8    1
    8     8     9    1
    9     8    10    1
   10    10    11    1
   11     8    12    1
   12    12    13    1
   13    12    14    1
   14    14    15    1
   15     1    16    1
   16    14    16    1
   17    14    17    1
   18    17    18    1
   19    17    19    1
   20    17    20    1
   21    20    21    1
   22    22    23    1
   23    22    24    1
   24    22    25    1
   25    25    26    1
   26    25    27    1
   27    27    28    1
   28    25    29    1
   29    29    30    1
   30    29    31    1
   31    31    32    1
   32     3    33    1
   33    29    33    1
   34    33    34    1
   35    33    35    1
   36    35    36    1
   37    22    37    1
   38    35    37    1
   39    35    38    1
   40    38    39    1
   41    38    40    1
   42    38    41    1
   43    41    42    1
   44    43    44    1
   45    43    45    1
   46    43    46    1
   47    46    47    1
   48    46    48    1
   49    48    49    1
   50    46    50    1
   51    50    51    1
   52    50    52    1
   53    52    53    1
   54    24    54    1
   55    50    54    1
   56    54    55    1
   57    54    56    1
   58    56    57    1
   59    43    58    1
   60    56    58    1
   61    56    59    1
   62    59    60    1
   63    59    61    1
   64    59    62    1
   65    62    63    1
   66    64    65    1
   67    64    66    1
   68    64    67    1
   69    67    68    1
   70    67    69    1
   71    69    70    1
   72    67    71    1
   73    71    72    1
   74    71    73    1
   75    73    74    1
   76    45    75    1
   77    71    75    1
   78    75    76    1
   79    75    77    1
   80    77    78    1
   81    64    79    1
   82    77    79    1
   83    77    80    1
   84    80    81    1
   85    80    82    1
   86    80    83    1
   87    83    84    1
   88    85    86    1
   89    85    87    1
   90    85    88    1
   91    88    89    1
   92    88    90    1
   93    90    91    1
   94    88    92    1
   95    92    93    1
   96    92    94    1
   97    94    95    1
   98    66    96    1
   99    92    96    1
  100    96    97    1
  101    96    98    1
  102    98    99    1
  103    85   100    1
  104    98   100    1
  105    98   101    1
  106   101   102    1
  107   101   103    1
  108   101   104    1
  109   104   105    1
  110   106   107    1
  111    12   108    1
  112   106   108    1
  113   106   109    1
  114   109   110    1
  115   109   111    1
  116   111   112    1
  117   109   113    1
  118   113   114    1
  119   113   115    1
  120   115   116    1
  121    87   117    1
  122   113   117    1
  123   117   118    1
  124   117   119    1
  125   119   120    1
  126   106   121    1
  127   119   121    1
  128   119   122    1
  129   122   123    1
  130   122   124    1
  131   122   125    1
  132   125   126    1
  133   127   128    1
  134   127   129    2
  135   127   130    1
  136   130   131    1
  137   130   132    1
  138   130   133    1
  139   133   134    1
  140   133   135    1
  141   133   136    1
  142   136   137    1
  143   136   138    1
  144   136   139    1
  145   139   140    1
  146   139   141    1
  147   139   142    1
  148   142   143    1
  149   142   144    1
  150   142   145    1
  151   145   146    1
  152   145   147    1
  153   145   148    1
  154   148   149    1
  155   148   150    1
  156   148   151    1
@<TRIPOS>SUBSTRUCTURE
       1 MOL1            1 RESIDUE      1      MOL     
       2 MOL1          151 RESIDUE      1      MOL     
@<SCITEGIC>MOL_PROPERTY
VM2 Rank
SciTegic.value.IntegerValue
8

@<SCITEGIC>MOL_PROPERTY
Conf_Id
SciTegic.value.IntegerValue
27018

@<SCITEGIC>MOL_PROPERTY
Probability
SciTegic.value.DoubleValue
1.76

@<SCITEGIC>MOL_PROPERTY
Sum Probability
SciTegic.value.DoubleValue
21.12

@<SCITEGIC>MOL_PROPERTY
Delta G
SciTegic.value.DoubleValue
0.490

@<SCITEGIC>MOL_PROPERTY
G
SciTegic.value.DoubleValue
505.309

@<SCITEGIC>MOL_PROPERTY
E
SciTegic.value.DoubleValue
308.578

@<SCITEGIC>MOL_PROPERTY
-TS
SciTegic.value.DoubleValue
196.731

@<SCITEGIC>MOL_PROPERTY
U+W
SciTegic.value.DoubleValue
175.336

@<SCITEGIC>MOL_PROPERTY
U
SciTegic.value.DoubleValue
247.259

@<SCITEGIC>MOL_PROPERTY
W
SciTegic.value.DoubleValue
-71.923

@<SCITEGIC>MOL_PROPERTY
W(PB)
SciTegic.value.DoubleValue
-78.106

@<SCITEGIC>MOL_PROPERTY
W(SA)
SciTegic.value.DoubleValue
6.183

@<SCITEGIC>MOL_PROPERTY
Valence
SciTegic.value.DoubleValue
150.999

@<SCITEGIC>MOL_PROPERTY
Coulomb
SciTegic.value.DoubleValue
123.142

@<SCITEGIC>MOL_PROPERTY
VdW
SciTegic.value.DoubleValue
-26.882

@<SCITEGIC>MOL_PROPERTY
VdW6
SciTegic.value.DoubleValue
-184.229

@<SCITEGIC>MOL_PROPERTY
VdW12
SciTegic.value.DoubleValue
157.347

@<SCITEGIC>MOL_PROPERTY
Bond
SciTegic.value.DoubleValue
4.512

@<SCITEGIC>MOL_PROPERTY
Angle
SciTegic.value.DoubleValue
11.522

@<SCITEGIC>MOL_PROPERTY
Pdih
SciTegic.value.DoubleValue
134.964

@<SCITEGIC>MOL_PROPERTY
Idih
SciTegic.value.DoubleValue
0.001

@<SCITEGIC>MOL_PROPERTY
Tether
SciTegic.value.DoubleValue
0.000

