@<TRIPOS>MOLECULE
CD_guest-s22_vm2_rndm.mol2 : vm2 host+ligand conformer 1
         146         151           2
SMALL
USER_CHARGES
 
@<TRIPOS>ATOM
       1    C1      16.207371   15.307000   21.707091 C.3        1 MOL1         0.2972
       2    H1      15.132823   15.168804   21.881474 H          1 MOL1         0.0751
       3    O1      16.496227   16.604206   21.147066 O.3        1 MOL1        -0.3740
       4    C2      16.992893   15.140377   23.031159 C.3        1 MOL1         0.1003
       5    H2      16.828682   14.112393   23.379655 H          1 MOL1         0.0783
       6    O2      16.536952   16.051788   24.039662 O.3        1 MOL1        -0.5519
       7    H3      17.227643   16.008554   24.738701 H          1 MOL1         0.3769
       8    C3      18.509394   15.320990   22.796652 C.3        1 MOL1         0.1053
       9    H4      18.696056   16.369553   22.527904 H          1 MOL1         0.0783
      10    O3      19.211668   14.986425   23.999272 O.3        1 MOL1        -0.5519
      11    H5      20.107678   14.676917   23.724350 H          1 MOL1         0.3769
      12    C4      19.018042   14.429265   21.636803 C.3        1 MOL1         0.1018
      13    H6      19.113339   13.399052   22.005895 H          1 MOL1         0.0783
      14    C5      18.087285   14.464359   20.388958 C.3        1 MOL1         0.1043
      15    H7      18.215757   15.433614   19.890913 H          1 MOL1         0.0783
      16    O4      16.703133   14.307933   20.790913 O.3        1 MOL1        -0.3740
      17    C6      18.399228   13.366217   19.347961 C.3        1 MOL1         0.0138
      18    H8      19.395876   13.546206   18.923951 H          1 MOL1         0.0794
      19    H9      17.676962   13.446452   18.524453 H          1 MOL1         0.0794
      20    O5      18.339315   12.063049   19.934920 O.3        1 MOL1        -0.5486
      21    H10     17.435229   11.971263   20.310027 H          1 MOL1         0.3769
      22    C7      14.757631   20.252419   20.379625 C.3        1 MOL1         0.2972
      23    H11     14.158263   21.115439   20.062344 H          1 MOL1         0.0751
      24    O6      16.076591   20.652225   20.809142 O.3        1 MOL1        -0.3740
      25    C8      14.051519   19.464380   21.514269 C.3        1 MOL1         0.1003
      26    H12     13.124557   19.053066   21.094692 H          1 MOL1         0.0783
      27    O7      13.713458   20.328353   22.609856 O.3        1 MOL1        -0.5519
      28    H13     14.563919   20.577212   23.049809 H          1 MOL1         0.3769
      29    C9      14.937045   18.271343   21.964372 C.3        1 MOL1         0.1053
      30    H14     15.845974   18.678697   22.428647 H          1 MOL1         0.0783
      31    O8      14.236062   17.459332   22.913747 O.3        1 MOL1        -0.5519
      32    H15     14.932379   16.966345   23.413272 H          1 MOL1         0.3769
      33    C10     15.363100   17.398880   20.748169 C.3        1 MOL1         0.1018
      34    H16     14.520386   16.766521   20.438733 H          1 MOL1         0.0783
      35    C11     15.832180   18.233743   19.523344 C.3        1 MOL1         0.1043
      36    H17     16.835323   18.625824   19.730924 H          1 MOL1         0.0783
      37    O9      14.921000   19.334580   19.279607 O.3        1 MOL1        -0.3740
      38    C12     15.924045   17.399063   18.227162 C.3        1 MOL1         0.0138
      39    H18     16.621910   16.566396   18.386379 H          1 MOL1         0.0794
      40    H19     16.341173   18.030351   17.431235 H          1 MOL1         0.0794
      41    O10     14.638814   16.900606   17.843734 O.3        1 MOL1        -0.5486
      42    H20     14.045685   17.683713   17.803227 H          1 MOL1         0.3769
      43    C13     18.401960   23.814304   22.024626 C.3        1 MOL1         0.2972
      44    H21     18.823610   24.765934   22.371676 H          1 MOL1         0.0751
      45    O11     19.424828   22.935215   21.508158 O.3        1 MOL1        -0.3740
      46    C14     17.675679   23.096987   23.189339 C.3        1 MOL1         0.1003
      47    H22     16.854868   23.748086   23.516633 H          1 MOL1         0.0783
      48    O12     18.588966   22.907994   24.283987 O.3        1 MOL1        -0.5519
      49    H23     18.295740   22.112688   24.799594 H          1 MOL1         0.3769
      50    C15     17.052984   21.760673   22.704881 C.3        1 MOL1         0.1053
      51    H24     17.868057   21.062804   22.477725 H          1 MOL1         0.0783
      52    O13     16.212021   21.213174   23.728298 O.3        1 MOL1        -0.5519
      53    H25     16.809751   20.887903   24.450921 H          1 MOL1         0.3769
      54    C16     16.211531   21.952782   21.412933 C.3        1 MOL1         0.1018
      55    H26     15.238332   22.380742   21.687526 H          1 MOL1         0.0783
      56    C17     16.903878   22.855894   20.354528 C.3        1 MOL1         0.1043
      57    H27     17.722196   22.282435   19.900195 H          1 MOL1         0.0783
      58    O14     17.434207   24.047592   20.981556 O.3        1 MOL1        -0.3740
      59    C18     15.962793   23.302008   19.213418 C.3        1 MOL1         0.0138
      60    H28     15.640447   22.417205   18.648683 H          1 MOL1         0.0794
      61    H29     16.526878   23.942404   18.522034 H          1 MOL1         0.0794
      62    O15     14.825211   24.003511   19.723592 O.3        1 MOL1        -0.5486
      63    H30     15.179170   24.758251   20.244833 H          1 MOL1         0.3769
      64    C19     23.580751   22.775093   21.211351 C.3        1 MOL1         0.2972
      65    H31     24.638037   22.993423   21.014141 H          1 MOL1         0.0751
      66    O16     23.375377   21.394187   21.563652 O.3        1 MOL1        -0.3740
      67    C20     23.046896   23.653457   22.371339 C.3        1 MOL1         0.1003
      68    H32     23.161085   24.702947   22.070386 H          1 MOL1         0.0783
      69    O17     23.783038   23.424327   23.581108 O.3        1 MOL1        -0.5519
      70    H33     23.277550   23.908871   24.272206 H          1 MOL1         0.3769
      71    C21     21.542812   23.387014   22.617991 C.3        1 MOL1         0.1053
      72    H34     21.440219   22.356930   22.983897 H          1 MOL1         0.0783
      73    O18     21.061030   24.299959   23.611360 O.3        1 MOL1        -0.5519
      74    H35     20.221186   23.904626   23.955404 H          1 MOL1         0.3769
      75    C22     20.726921   23.516108   21.301174 C.3        1 MOL1         0.1018
      76    H36     20.650382   24.572892   21.012960 H          1 MOL1         0.0783
      77    C23     21.380968   22.723230   20.137241 C.3        1 MOL1         0.1043
      78    H37     21.264842   21.649039   20.336956 H          1 MOL1         0.0783
      79    O19     22.787064   23.060138   20.040903 O.3        1 MOL1        -0.3740
      80    C24     20.739284   23.023620   18.764362 C.3        1 MOL1         0.0138
      81    H38     19.675288   22.757240   18.798187 H          1 MOL1         0.0794
      82    H39     21.214033   22.385348   18.007345 H          1 MOL1         0.0794
      83    O20     20.891876   24.402428   18.414664 O.3        1 MOL1        -0.5486
      84    H40     21.852671   24.596096   18.490938 H          1 MOL1         0.3769
      85    C25     25.180656   17.701148   21.698261 C.3        1 MOL1         0.2972
      86    H41     25.855956   16.836831   21.727882 H          1 MOL1         0.0751
      87    O21     23.802851   17.302369   21.554601 O.3        1 MOL1        -0.3740
      88    C26     25.325044   18.532179   22.996597 C.3        1 MOL1         0.1003
      89    H42     26.359039   18.898491   23.039114 H          1 MOL1         0.0783
      90    O22     25.058939   17.737433   24.160214 O.3        1 MOL1        -0.5519
      91    H43     24.989208   18.389698   24.893415 H          1 MOL1         0.3769
      92    C27     24.386765   19.759206   22.967449 C.3        1 MOL1         0.1053
      93    H44     23.351941   19.396917   23.016153 H          1 MOL1         0.0783
      94    O23     24.663802   20.601242   24.093098 O.3        1 MOL1        -0.5519
      95    H45     24.211248   21.463266   23.919396 H          1 MOL1         0.3769
      96    C28     24.553121   20.574220   21.661487 C.3        1 MOL1         0.1018
      97    H46     25.469079   21.174503   21.742393 H          1 MOL1         0.0783
      98    C29     24.610681   19.686399   20.385778 C.3        1 MOL1         0.1043
      99    H47     23.598508   19.313168   20.179707 H          1 MOL1         0.0783
     100    O24     25.511007   18.568641   20.593353 O.3        1 MOL1        -0.3740
     101    C30     25.093113   20.446582   19.130488 C.3        1 MOL1         0.0138
     102    H48     24.373519   21.240201   18.891051 H          1 MOL1         0.0794
     103    H49     25.105802   19.750990   18.280730 H          1 MOL1         0.0794
     104    O25     26.394794   21.004349   19.334112 O.3        1 MOL1        -0.5486
     105    H50     26.979125   20.252592   19.579095 H          1 MOL1         0.3769
     106    C31     21.330009   14.027013   20.938966 C.3        1 MOL1         0.2972
     107    H51     20.911528   13.047614   20.673986 H          1 MOL1         0.0751
     108    O26     20.291780   14.977398   21.247159 O.3        1 MOL1        -0.3740
     109    C32     22.293892   13.906080   22.149936 C.3        1 MOL1         0.1003
     110    H52     23.096066   13.215602   21.858543 H          1 MOL1         0.0783
     111    O27     21.630081   13.390388   23.311100 O.3        1 MOL1        -0.5519
     112    H53     22.300540   13.450418   24.028579 H          1 MOL1         0.3769
     113    C33     22.941650   15.269805   22.485697 C.3        1 MOL1         0.1053
     114    H54     22.154616   15.938805   22.860519 H          1 MOL1         0.0783
     115    O28     23.944332   15.086438   23.492692 O.3        1 MOL1        -0.5519
     116    H55     24.272077   15.989205   23.732470 H          1 MOL1         0.3769
     117    C34     23.569523   15.920833   21.228153 C.3        1 MOL1         0.1018
     118    H56     24.497109   15.394057   20.967763 H          1 MOL1         0.0783
     119    C35     22.613444   15.893018   20.007073 C.3        1 MOL1         0.1043
     120    H57     21.794886   16.599374   20.191898 H          1 MOL1         0.0783
     121    O29     22.085482   14.554627   19.828582 O.3        1 MOL1        -0.3740
     122    C36     23.303529   16.303944   18.687886 C.3        1 MOL1         0.0138
     123    H58     23.701106   17.321677   18.791388 H          1 MOL1         0.0794
     124    H59     22.550367   16.325172   17.888961 H          1 MOL1         0.0794
     125    O30     24.356472   15.394461   18.354371 O.3        1 MOL1        -0.5486
     126    H60     23.952137   14.498365   18.360905 H          1 MOL1         0.3769
     127    C1      20.047083   18.980915   18.522808 C.2        1 MOL1        -0.2535
     128    H1      20.132692   20.064819   18.497019 H          1 MOL1         0.0845
     129    H2      20.255792   18.438453   17.602766 H          1 MOL1         0.0845
     130    C2      19.699307   18.337150   19.639453 C.2        1 MOL1        -0.1324
     131    H3      19.616096   17.252057   19.645302 H          1 MOL1         0.0833
     132    C3      19.391676   19.018872   20.953063 C.3        1 MOL1        -0.1813
     133    H4      18.472415   18.595049   21.373402 H          1 MOL1         0.0753
     134    H5      19.200900   20.087396   20.788898 H          1 MOL1         0.0753
     135    C4      20.554467   18.852649   21.955388 C.3        1 MOL1        -0.1855
     136    H6      20.760839   17.786361   22.114395 H          1 MOL1         0.0755
     137    H7      21.461683   19.282698   21.512081 H          1 MOL1         0.0755
     138    C5      20.288534   19.537215   23.316999 C.3        1 MOL1        -0.1855
     139    H8      20.010019   20.585676   23.155650 H          1 MOL1         0.0755
     140    H9      21.219560   19.552314   23.898696 H          1 MOL1         0.0755
     141    C6      19.196706   18.830163   24.162085 C.3        1 MOL1        -0.1958
     142    H10     18.242001   18.799794   23.626158 H          1 MOL1         0.0753
     143    H11     19.490763   17.793291   24.360293 H          1 MOL1         0.0753
     144    C7      18.953597   19.511752   25.504119 C.2        1 MOL1         0.6174
     145    O1      19.573853   19.117784   26.471806 O.co2      1 MOL1        -0.6695
     146    O2      18.160114   20.434350   25.535992 O.co2      1 MOL1        -0.6695
@<TRIPOS>BOND
    1     1     2    1
    2     1     3    1
    3     1     4    1
    4     4     5    1
    5     4     6    1
    6     6     7    1
    7     4     8    1
    8     8     9    1
    9     8    10    1
   10    10    11    1
   11     8    12    1
   12    12    13    1
   13    12    14    1
   14    14    15    1
   15     1    16    1
   16    14    16    1
   17    14    17    1
   18    17    18    1
   19    17    19    1
   20    17    20    1
   21    20    21    1
   22    22    23    1
   23    22    24    1
   24    22    25    1
   25    25    26    1
   26    25    27    1
   27    27    28    1
   28    25    29    1
   29    29    30    1
   30    29    31    1
   31    31    32    1
   32     3    33    1
   33    29    33    1
   34    33    34    1
   35    33    35    1
   36    35    36    1
   37    22    37    1
   38    35    37    1
   39    35    38    1
   40    38    39    1
   41    38    40    1
   42    38    41    1
   43    41    42    1
   44    43    44    1
   45    43    45    1
   46    43    46    1
   47    46    47    1
   48    46    48    1
   49    48    49    1
   50    46    50    1
   51    50    51    1
   52    50    52    1
   53    52    53    1
   54    24    54    1
   55    50    54    1
   56    54    55    1
   57    54    56    1
   58    56    57    1
   59    43    58    1
   60    56    58    1
   61    56    59    1
   62    59    60    1
   63    59    61    1
   64    59    62    1
   65    62    63    1
   66    64    65    1
   67    64    66    1
   68    64    67    1
   69    67    68    1
   70    67    69    1
   71    69    70    1
   72    67    71    1
   73    71    72    1
   74    71    73    1
   75    73    74    1
   76    45    75    1
   77    71    75    1
   78    75    76    1
   79    75    77    1
   80    77    78    1
   81    64    79    1
   82    77    79    1
   83    77    80    1
   84    80    81    1
   85    80    82    1
   86    80    83    1
   87    83    84    1
   88    85    86    1
   89    85    87    1
   90    85    88    1
   91    88    89    1
   92    88    90    1
   93    90    91    1
   94    88    92    1
   95    92    93    1
   96    92    94    1
   97    94    95    1
   98    66    96    1
   99    92    96    1
  100    96    97    1
  101    96    98    1
  102    98    99    1
  103    85   100    1
  104    98   100    1
  105    98   101    1
  106   101   102    1
  107   101   103    1
  108   101   104    1
  109   104   105    1
  110   106   107    1
  111    12   108    1
  112   106   108    1
  113   106   109    1
  114   109   110    1
  115   109   111    1
  116   111   112    1
  117   109   113    1
  118   113   114    1
  119   113   115    1
  120   115   116    1
  121    87   117    1
  122   113   117    1
  123   117   118    1
  124   117   119    1
  125   119   120    1
  126   106   121    1
  127   119   121    1
  128   119   122    1
  129   122   123    1
  130   122   124    1
  131   122   125    1
  132   125   126    1
  133   127   128    1
  134   127   129    1
  135   127   130    2
  136   130   131    1
  137   130   132    1
  138   132   133    1
  139   132   134    1
  140   132   135    1
  141   135   136    1
  142   135   137    1
  143   135   138    1
  144   138   139    1
  145   138   140    1
  146   138   141    1
  147   141   142    1
  148   141   143    1
  149   141   144    1
  150   144   145    1
  151   144   146    2
@<TRIPOS>SUBSTRUCTURE
       1 MOL1            1 RESIDUE      1      MOL     
       2 MOL1          146 RESIDUE      1      MOL     
@<SCITEGIC>MOL_PROPERTY
VM2 Rank
SciTegic.value.IntegerValue
1

@<SCITEGIC>MOL_PROPERTY
Conf_Id
SciTegic.value.IntegerValue
24451

@<SCITEGIC>MOL_PROPERTY
Probability
SciTegic.value.DoubleValue
6.16

@<SCITEGIC>MOL_PROPERTY
Sum Probability
SciTegic.value.DoubleValue
6.16

@<SCITEGIC>MOL_PROPERTY
Delta G
SciTegic.value.DoubleValue
0.000

@<SCITEGIC>MOL_PROPERTY
G
SciTegic.value.DoubleValue
492.061

@<SCITEGIC>MOL_PROPERTY
E
SciTegic.value.DoubleValue
304.437

@<SCITEGIC>MOL_PROPERTY
-TS
SciTegic.value.DoubleValue
187.624

@<SCITEGIC>MOL_PROPERTY
U+W
SciTegic.value.DoubleValue
175.666

@<SCITEGIC>MOL_PROPERTY
U
SciTegic.value.DoubleValue
247.505

@<SCITEGIC>MOL_PROPERTY
W
SciTegic.value.DoubleValue
-71.839

@<SCITEGIC>MOL_PROPERTY
W(PB)
SciTegic.value.DoubleValue
-77.999

@<SCITEGIC>MOL_PROPERTY
W(SA)
SciTegic.value.DoubleValue
6.160

@<SCITEGIC>MOL_PROPERTY
Valence
SciTegic.value.DoubleValue
151.153

@<SCITEGIC>MOL_PROPERTY
Coulomb
SciTegic.value.DoubleValue
121.553

@<SCITEGIC>MOL_PROPERTY
VdW
SciTegic.value.DoubleValue
-25.201

@<SCITEGIC>MOL_PROPERTY
VdW6
SciTegic.value.DoubleValue
-180.831

@<SCITEGIC>MOL_PROPERTY
VdW12
SciTegic.value.DoubleValue
155.630

@<SCITEGIC>MOL_PROPERTY
Bond
SciTegic.value.DoubleValue
4.540

@<SCITEGIC>MOL_PROPERTY
Angle
SciTegic.value.DoubleValue
11.645

@<SCITEGIC>MOL_PROPERTY
Pdih
SciTegic.value.DoubleValue
134.966

@<SCITEGIC>MOL_PROPERTY
Idih
SciTegic.value.DoubleValue
0.001

@<SCITEGIC>MOL_PROPERTY
Tether
SciTegic.value.DoubleValue
0.000

