@<TRIPOS>MOLECULE
CD_guest-6_vm2_rndm.mol2 : vm2 host+ligand conformer 1
         139         144           2
SMALL
USER_CHARGES
 
@<TRIPOS>ATOM
       1    C1      16.205913   15.148946   20.595498 C.3        1 MOL1         0.2972
       2    H1      15.140445   15.040191   20.355674 H          1 MOL1         0.0751
       3    O1      16.533419   16.518034   20.909237 O.3        1 MOL1        -0.3740
       4    C2      16.611378   14.213219   21.768187 C.3        1 MOL1         0.1003
       5    H2      16.434056   13.184078   21.430732 H          1 MOL1         0.0783
       6    O2      15.806086   14.456389   22.931861 O.3        1 MOL1        -0.5519
       7    H3      16.105203   15.322767   23.305018 H          1 MOL1         0.3769
       8    C3      18.125599   14.349212   22.082206 C.3        1 MOL1         0.1053
       9    H4      18.302933   15.349252   22.501400 H          1 MOL1         0.0783
      10    O3      18.531861   13.345083   23.020465 O.3        1 MOL1        -0.5519
      11    H5      19.506723   13.451155   23.148927 H          1 MOL1         0.3769
      12    C4      18.985536   14.200524   20.800755 C.3        1 MOL1         0.1018
      13    H6      19.029899   13.136396   20.534127 H          1 MOL1         0.0783
      14    C5      18.432538   15.004029   19.592681 C.3        1 MOL1         0.1043
      15    H7      18.623346   16.071078   19.767244 H          1 MOL1         0.0783
      16    O4      17.007331   14.772256   19.456255 O.3        1 MOL1        -0.3740
      17    C6      19.099250   14.619571   18.253287 C.3        1 MOL1         0.0138
      18    H8      20.174821   14.830702   18.313078 H          1 MOL1         0.0794
      19    H9      18.684658   15.254177   17.458766 H          1 MOL1         0.0794
      20    O5      18.882917   13.238384   17.948212 O.3        1 MOL1        -0.5486
      21    H10     17.909234   13.103914   17.970607 H          1 MOL1         0.3769
      22    C7      15.019884   20.149312   22.142912 C.3        1 MOL1         0.2972
      23    H11     14.428031   20.989004   22.528076 H          1 MOL1         0.0751
      24    O6      16.200327   20.602846   21.445036 O.3        1 MOL1        -0.3740
      25    C8      15.457254   19.218011   23.301807 C.3        1 MOL1         0.1003
      26    H12     14.546404   18.812293   23.760447 H          1 MOL1         0.0783
      27    O7      16.188004   19.959727   24.293381 O.3        1 MOL1        -0.5519
      28    H13     17.045930   19.482190   24.450103 H          1 MOL1         0.3769
      29    C9      16.280410   18.027614   22.747941 C.3        1 MOL1         0.1053
      30    H14     17.207225   18.425761   22.323989 H          1 MOL1         0.0783
      31    O8      16.592259   17.106980   23.800643 O.3        1 MOL1        -0.5519
      32    H15     17.372354   17.504800   24.271679 H          1 MOL1         0.3769
      33    C10     15.537583   17.298887   21.600153 C.3        1 MOL1         0.1018
      34    H16     14.742565   16.674755   22.028347 H          1 MOL1         0.0783
      35    C11     14.936913   18.285243   20.558602 C.3        1 MOL1         0.1043
      36    H17     15.762678   18.703625   19.968105 H          1 MOL1         0.0783
      37    O9      14.230096   19.358030   21.229497 O.3        1 MOL1        -0.3740
      38    C12     13.953699   17.616114   19.572655 C.3        1 MOL1         0.0138
      39    H18     14.499541   16.880885   18.966756 H          1 MOL1         0.0794
      40    H19     13.567201   18.381611   18.886424 H          1 MOL1         0.0794
      41    O10     12.875571   16.981155   20.266080 O.3        1 MOL1        -0.5486
      42    H20     12.448538   17.680220   20.809763 H          1 MOL1         0.3769
      43    C13     18.423362   24.093571   20.943855 C.3        1 MOL1         0.2972
      44    H21     18.753701   25.115150   20.718056 H          1 MOL1         0.0751
      45    O11     19.536186   23.215126   21.207478 O.3        1 MOL1        -0.3740
      46    C14     17.496379   24.095932   22.184977 C.3        1 MOL1         0.1003
      47    H22     16.633126   24.731407   21.948068 H          1 MOL1         0.0783
      48    O12     18.170458   24.625897   23.335104 O.3        1 MOL1        -0.5519
      49    H23     17.561234   24.440968   24.085042 H          1 MOL1         0.3769
      50    C15     16.969664   22.673874   22.492391 C.3        1 MOL1         0.1053
      51    H24     17.824426   22.059715   22.805742 H          1 MOL1         0.0783
      52    O13     16.017227   22.755117   23.559518 O.3        1 MOL1        -0.5519
      53    H25     15.978092   21.849033   23.954940 H          1 MOL1         0.3769
      54    C16     16.336417   22.022178   21.229188 C.3        1 MOL1         0.1018
      55    H26     15.363761   22.486170   21.018760 H          1 MOL1         0.0783
      56    C17     17.249701   22.175271   19.982161 C.3        1 MOL1         0.1043
      57    H27     18.128449   21.529776   20.114102 H          1 MOL1         0.0783
      58    O14     17.670840   23.553936   19.838150 O.3        1 MOL1        -0.3740
      59    C18     16.551820   21.761998   18.667320 C.3        1 MOL1         0.0138
      60    H28     16.237440   20.712737   18.741235 H          1 MOL1         0.0794
      61    H29     17.278075   21.831046   17.846568 H          1 MOL1         0.0794
      62    O15     15.422118   22.598107   18.400203 O.3        1 MOL1        -0.5486
      63    H30     15.754690   23.522619   18.438571 H          1 MOL1         0.3769
      64    C19     23.635607   22.807889   20.920160 C.3        1 MOL1         0.2972
      65    H31     24.714564   22.918038   20.751854 H          1 MOL1         0.0751
      66    O16     23.284362   21.430228   21.168307 O.3        1 MOL1        -0.3740
      67    C20     23.159303   23.713737   22.090406 C.3        1 MOL1         0.1003
      68    H32     23.355681   24.751088   21.790711 H          1 MOL1         0.0783
      69    O17     23.892212   23.441822   23.294552 O.3        1 MOL1        -0.5519
      70    H33     23.565617   22.570565   23.631363 H          1 MOL1         0.3769
      71    C21     21.628968   23.570273   22.306346 C.3        1 MOL1         0.1053
      72    H34     21.427689   22.557774   22.681175 H          1 MOL1         0.0783
      73    O18     21.159225   24.542654   23.248798 O.3        1 MOL1        -0.5519
      74    H35     20.176522   24.442876   23.296398 H          1 MOL1         0.3769
      75    C22     20.850335   23.760316   20.979996 C.3        1 MOL1         0.1018
      76    H36     20.818670   24.833271   20.749200 H          1 MOL1         0.0783
      77    C23     21.477889   22.998226   19.780780 C.3        1 MOL1         0.1043
      78    H37     21.271003   21.927053   19.903471 H          1 MOL1         0.0783
      79    O19     22.910212   23.224156   19.744510 O.3        1 MOL1        -0.3740
      80    C24     20.903816   23.435677   18.414850 C.3        1 MOL1         0.0138
      81    H38     19.827807   23.221040   18.390420 H          1 MOL1         0.0794
      82    H39     21.374859   22.834020   17.626155 H          1 MOL1         0.0794
      83    O20     21.135567   24.828165   18.180743 O.3        1 MOL1        -0.5486
      84    H40     22.105590   24.961747   18.269243 H          1 MOL1         0.3769
      85    C25     24.707313   17.769522   22.447209 C.3        1 MOL1         0.2972
      86    H41     25.273326   16.927196   22.864244 H          1 MOL1         0.0751
      87    O21     23.592364   17.319480   21.647607 O.3        1 MOL1        -0.3740
      88    C26     24.173613   18.679538   23.583727 C.3        1 MOL1         0.1003
      89    H42     25.043813   19.075137   24.123045 H          1 MOL1         0.0783
      90    O22     23.360920   17.925590   24.499985 O.3        1 MOL1        -0.5519
      91    H43     22.480496   18.384000   24.569568 H          1 MOL1         0.3769
      92    C27     23.398003   19.880883   22.990064 C.3        1 MOL1         0.1053
      93    H44     22.502176   19.488161   22.496794 H          1 MOL1         0.0783
      94    O23     23.021764   20.787040   24.034366 O.3        1 MOL1        -0.5519
      95    H45     22.227349   20.373157   24.464624 H          1 MOL1         0.3769
      96    C28     24.223835   20.628498   21.913654 C.3        1 MOL1         0.1018
      97    H46     24.987517   21.239775   22.411678 H          1 MOL1         0.0783
      98    C29     24.899755   19.659519   20.903128 C.3        1 MOL1         0.1043
      99    H47     24.120156   19.248014   20.248395 H          1 MOL1         0.0783
     100    O24     25.560281   18.579825   21.609918 O.3        1 MOL1        -0.3740
     101    C30     25.949531   20.345821   20.001136 C.3        1 MOL1         0.0138
     102    H48     25.446623   21.090234   19.369791 H          1 MOL1         0.0794
     103    H49     26.386051   19.592106   19.332085 H          1 MOL1         0.0794
     104    O25     26.973696   20.970892   20.780091 O.3        1 MOL1        -0.5486
     105    H50     27.361107   20.263998   21.343011 H          1 MOL1         0.3769
     106    C31     21.406428   13.844023   20.946645 C.3        1 MOL1         0.2972
     107    H51     21.084942   12.826521   20.691700 H          1 MOL1         0.0751
     108    O26     20.285457   14.734752   21.119125 O.3        1 MOL1        -0.3740
     109    C32     22.230836   13.829726   22.257599 C.3        1 MOL1         0.1003
     110    H52     23.109714   13.195223   22.083905 H          1 MOL1         0.0783
     111    O27     21.471117   13.290401   23.347829 O.3        1 MOL1        -0.5519
     112    H53     22.018046   13.476741   24.144169 H          1 MOL1         0.3769
     113    C33     22.733857   15.247929   22.616190 C.3        1 MOL1         0.1053
     114    H54     21.859679   15.868676   22.859157 H          1 MOL1         0.0783
     115    O28     23.594661   15.152239   23.757593 O.3        1 MOL1        -0.5519
     116    H55     23.599575   16.053219   24.166308 H          1 MOL1         0.3769
     117    C34     23.475695   15.900771   21.414855 C.3        1 MOL1         0.1018
     118    H56     24.463177   15.436821   21.291458 H          1 MOL1         0.0783
     119    C35     22.678482   15.750711   20.089370 C.3        1 MOL1         0.1043
     120    H57     21.798833   16.405446   20.137141 H          1 MOL1         0.0783
     121    O29     22.254965   14.376581   19.908691 O.3        1 MOL1        -0.3740
     122    C36     23.498599   16.153595   18.843855 C.3        1 MOL1         0.0138
     123    H58     23.818055   17.199017   18.946633 H          1 MOL1         0.0794
     124    H59     22.849542   16.092731   17.960185 H          1 MOL1         0.0794
     125    O30     24.637331   15.302945   18.681220 O.3        1 MOL1        -0.5486
     126    H60     24.290796   14.382772   18.688552 H          1 MOL1         0.3769
     127    C1      19.755932   19.132500   24.022499 C.2        1 MOL1         0.6021
     128    O1      18.719434   18.761204   24.542032 O.co2      1 MOL1        -0.6904
     129    O2      20.828909   19.176376   24.595606 O.co2      1 MOL1        -0.6904
     130    C2      19.708406   19.558268   22.556702 C.3        1 MOL1        -0.2102
     131    H1      20.441918   20.356930   22.402749 H          1 MOL1         0.0687
     132    H2      18.728380   20.002336   22.360931 H          1 MOL1         0.0687
     133    C3      19.970228   18.387607   21.576069 C.3        1 MOL1        -0.1974
     134    H3      20.961901   17.962873   21.772140 H          1 MOL1         0.0689
     135    H4      19.247900   17.581129   21.758443 H          1 MOL1         0.0689
     136    C4      19.878882   18.841888   20.105888 C.3        1 MOL1        -0.2987
     137    H5      20.608313   19.634387   19.896997 H          1 MOL1         0.0700
     138    H6      20.084231   18.004678   19.427679 H          1 MOL1         0.0700
     139    H7      18.875364   19.223754   19.878939 H          1 MOL1         0.0700
@<TRIPOS>BOND
    1     1     2    1
    2     1     3    1
    3     1     4    1
    4     4     5    1
    5     4     6    1
    6     6     7    1
    7     4     8    1
    8     8     9    1
    9     8    10    1
   10    10    11    1
   11     8    12    1
   12    12    13    1
   13    12    14    1
   14    14    15    1
   15     1    16    1
   16    14    16    1
   17    14    17    1
   18    17    18    1
   19    17    19    1
   20    17    20    1
   21    20    21    1
   22    22    23    1
   23    22    24    1
   24    22    25    1
   25    25    26    1
   26    25    27    1
   27    27    28    1
   28    25    29    1
   29    29    30    1
   30    29    31    1
   31    31    32    1
   32     3    33    1
   33    29    33    1
   34    33    34    1
   35    33    35    1
   36    35    36    1
   37    22    37    1
   38    35    37    1
   39    35    38    1
   40    38    39    1
   41    38    40    1
   42    38    41    1
   43    41    42    1
   44    43    44    1
   45    43    45    1
   46    43    46    1
   47    46    47    1
   48    46    48    1
   49    48    49    1
   50    46    50    1
   51    50    51    1
   52    50    52    1
   53    52    53    1
   54    24    54    1
   55    50    54    1
   56    54    55    1
   57    54    56    1
   58    56    57    1
   59    43    58    1
   60    56    58    1
   61    56    59    1
   62    59    60    1
   63    59    61    1
   64    59    62    1
   65    62    63    1
   66    64    65    1
   67    64    66    1
   68    64    67    1
   69    67    68    1
   70    67    69    1
   71    69    70    1
   72    67    71    1
   73    71    72    1
   74    71    73    1
   75    73    74    1
   76    45    75    1
   77    71    75    1
   78    75    76    1
   79    75    77    1
   80    77    78    1
   81    64    79    1
   82    77    79    1
   83    77    80    1
   84    80    81    1
   85    80    82    1
   86    80    83    1
   87    83    84    1
   88    85    86    1
   89    85    87    1
   90    85    88    1
   91    88    89    1
   92    88    90    1
   93    90    91    1
   94    88    92    1
   95    92    93    1
   96    92    94    1
   97    94    95    1
   98    66    96    1
   99    92    96    1
  100    96    97    1
  101    96    98    1
  102    98    99    1
  103    85   100    1
  104    98   100    1
  105    98   101    1
  106   101   102    1
  107   101   103    1
  108   101   104    1
  109   104   105    1
  110   106   107    1
  111    12   108    1
  112   106   108    1
  113   106   109    1
  114   109   110    1
  115   109   111    1
  116   111   112    1
  117   109   113    1
  118   113   114    1
  119   113   115    1
  120   115   116    1
  121    87   117    1
  122   113   117    1
  123   117   118    1
  124   117   119    1
  125   119   120    1
  126   106   121    1
  127   119   121    1
  128   119   122    1
  129   122   123    1
  130   122   124    1
  131   122   125    1
  132   125   126    1
  133   127   128    1
  134   127   129    2
  135   127   130    1
  136   130   131    1
  137   130   132    1
  138   130   133    1
  139   133   134    1
  140   133   135    1
  141   133   136    1
  142   136   137    1
  143   136   138    1
  144   136   139    1
@<TRIPOS>SUBSTRUCTURE
       1 MOL1            1 RESIDUE      1      MOL     
       2 MOL1          139 RESIDUE      1      MOL     
@<SCITEGIC>MOL_PROPERTY
VM2 Rank
SciTegic.value.IntegerValue
1

@<SCITEGIC>MOL_PROPERTY
Conf_Id
SciTegic.value.IntegerValue
10465

@<SCITEGIC>MOL_PROPERTY
Probability
SciTegic.value.DoubleValue
2.68

@<SCITEGIC>MOL_PROPERTY
Sum Probability
SciTegic.value.DoubleValue
2.68

@<SCITEGIC>MOL_PROPERTY
Delta G
SciTegic.value.DoubleValue
0.000

@<SCITEGIC>MOL_PROPERTY
G
SciTegic.value.DoubleValue
472.967

@<SCITEGIC>MOL_PROPERTY
E
SciTegic.value.DoubleValue
293.351

@<SCITEGIC>MOL_PROPERTY
-TS
SciTegic.value.DoubleValue
179.616

@<SCITEGIC>MOL_PROPERTY
U+W
SciTegic.value.DoubleValue
170.839

@<SCITEGIC>MOL_PROPERTY
U
SciTegic.value.DoubleValue
236.057

@<SCITEGIC>MOL_PROPERTY
W
SciTegic.value.DoubleValue
-65.209

@<SCITEGIC>MOL_PROPERTY
W(PB)
SciTegic.value.DoubleValue
-71.298

@<SCITEGIC>MOL_PROPERTY
W(SA)
SciTegic.value.DoubleValue
6.089

@<SCITEGIC>MOL_PROPERTY
Valence
SciTegic.value.DoubleValue
149.610

@<SCITEGIC>MOL_PROPERTY
Coulomb
SciTegic.value.DoubleValue
103.873

@<SCITEGIC>MOL_PROPERTY
VdW
SciTegic.value.DoubleValue
-17.426

@<SCITEGIC>MOL_PROPERTY
VdW6
SciTegic.value.DoubleValue
-175.138

@<SCITEGIC>MOL_PROPERTY
VdW12
SciTegic.value.DoubleValue
157.712

@<SCITEGIC>MOL_PROPERTY
Bond
SciTegic.value.DoubleValue
5.112

@<SCITEGIC>MOL_PROPERTY
Angle
SciTegic.value.DoubleValue
12.123

@<SCITEGIC>MOL_PROPERTY
Pdih
SciTegic.value.DoubleValue
132.374

@<SCITEGIC>MOL_PROPERTY
Idih
SciTegic.value.DoubleValue
0.000

@<SCITEGIC>MOL_PROPERTY
Tether
SciTegic.value.DoubleValue
0.000

@<TRIPOS>MOLECULE
CD_guest-6_vm2_rndm.mol2 : vm2 host+ligand conformer 2
         139         144           2
SMALL
USER_CHARGES
 
@<TRIPOS>ATOM
       1    C1      16.189674   15.153011   20.590525 C.3        1 MOL1         0.2972
       2    H1      15.124352   15.047907   20.348365 H          1 MOL1         0.0751
       3    O1      16.521571   16.523500   20.898479 O.3        1 MOL1        -0.3740
       4    C2      16.588970   14.214692   21.764116 C.3        1 MOL1         0.1003
       5    H2      16.414118   13.186212   21.423338 H          1 MOL1         0.0783
       6    O2      15.778122   14.453162   22.924573 O.3        1 MOL1        -0.5519
       7    H3      16.083743   15.312597   23.308191 H          1 MOL1         0.3769
       8    C3      18.101483   14.351127   22.084586 C.3        1 MOL1         0.1053
       9    H4      18.276302   15.352685   22.499823 H          1 MOL1         0.0783
      10    O3      18.509168   13.352744   23.028745 O.3        1 MOL1        -0.5519
      11    H5      19.485629   13.454119   23.147865 H          1 MOL1         0.3769
      12    C4      18.966517   14.198043   20.808011 C.3        1 MOL1         0.1018
      13    H6      19.015896   13.132001   20.549911 H          1 MOL1         0.0783
      14    C5      18.418216   14.993094   19.591487 C.3        1 MOL1         0.1043
      15    H7      18.614865   16.060347   19.757075 H          1 MOL1         0.0783
      16    O4      16.991719   14.768703   19.454420 O.3        1 MOL1        -0.3740
      17    C6      19.082235   14.593503   18.255068 C.3        1 MOL1         0.0138
      18    H8      20.157402   14.807176   18.308562 H          1 MOL1         0.0794
      19    H9      18.664535   15.217845   17.454038 H          1 MOL1         0.0794
      20    O5      18.867212   13.208486   17.966906 O.3        1 MOL1        -0.5486
      21    H10     17.893530   13.073783   17.987460 H          1 MOL1         0.3769
      22    C7      15.005291   20.142837   22.201753 C.3        1 MOL1         0.2972
      23    H11     14.407933   20.966758   22.611887 H          1 MOL1         0.0751
      24    O6      16.160663   20.627807   21.484423 O.3        1 MOL1        -0.3740
      25    C8      15.475209   19.196820   23.337692 C.3        1 MOL1         0.1003
      26    H12     14.576113   18.779629   23.809087 H          1 MOL1         0.0783
      27    O7      16.225586   19.921260   24.327623 O.3        1 MOL1        -0.5519
      28    H13     17.101312   19.462057   24.438725 H          1 MOL1         0.3769
      29    C9      16.292673   18.018948   22.754223 C.3        1 MOL1         0.1053
      30    H14     17.213927   18.430912   22.328240 H          1 MOL1         0.0783
      31    O8      16.610379   17.081620   23.790522 O.3        1 MOL1        -0.5519
      32    H15     17.374949   17.484141   24.281335 H          1 MOL1         0.3769
      33    C10     15.536624   17.303503   21.607366 C.3        1 MOL1         0.1018
      34    H16     14.744121   16.678281   22.038528 H          1 MOL1         0.0783
      35    C11     14.923405   18.303277   20.586966 C.3        1 MOL1         0.1043
      36    H17     15.742409   18.737190   19.997797 H          1 MOL1         0.0783
      37    O9      14.212872   19.358236   21.284005 O.3        1 MOL1        -0.3740
      38    C12     13.937606   17.643314   19.597314 C.3        1 MOL1         0.0138
      39    H18     14.483703   16.919651   18.977800 H          1 MOL1         0.0794
      40    H19     13.542817   18.416214   18.924348 H          1 MOL1         0.0794
      41    O10     12.867092   16.992598   20.287903 O.3        1 MOL1        -0.5486
      42    H20     12.441646   17.680501   20.846857 H          1 MOL1         0.3769
      43    C13     18.373257   24.125239   21.045546 C.3        1 MOL1         0.2972
      44    H21     18.711196   25.150898   20.851941 H          1 MOL1         0.0751
      45    O11     19.479833   23.218491   21.228158 O.3        1 MOL1        -0.3740
      46    C14     17.490122   24.085804   22.316378 C.3        1 MOL1         0.1003
      47    H22     16.622876   24.732802   22.130701 H          1 MOL1         0.0783
      48    O12     18.199688   24.571841   23.463900 O.3        1 MOL1        -0.5519
      49    H23     17.614632   24.355847   24.224760 H          1 MOL1         0.3769
      50    C15     16.965082   22.655962   22.586239 C.3        1 MOL1         0.1053
      51    H24     17.822357   22.022074   22.854341 H          1 MOL1         0.0783
      52    O13     16.038467   22.711585   23.677400 O.3        1 MOL1        -0.5519
      53    H25     16.009254   21.796446   24.052220 H          1 MOL1         0.3769
      54    C16     16.290578   22.054624   21.319611 C.3        1 MOL1         0.1018
      55    H26     15.311370   22.526179   21.162815 H          1 MOL1         0.0783
      56    C17     17.150833   22.259717   20.042724 C.3        1 MOL1         0.1043
      57    H27     18.027434   21.600480   20.093189 H          1 MOL1         0.0783
      58    O14     17.565510   23.645354   19.950663 O.3        1 MOL1        -0.3740
      59    C18     16.364706   21.924039   18.758180 C.3        1 MOL1         0.0138
      60    H28     15.493792   22.588681   18.682112 H          1 MOL1         0.0794
      61    H29     15.993434   20.892574   18.820935 H          1 MOL1         0.0794
      62    O15     17.207829   22.071023   17.613676 O.3        1 MOL1        -0.5486
      63    H30     17.582504   22.978064   17.669151 H          1 MOL1         0.3769
      64    C19     23.583364   22.804565   20.891995 C.3        1 MOL1         0.2972
      65    H31     24.658100   22.920366   20.702206 H          1 MOL1         0.0751
      66    O16     23.248411   21.430720   21.174551 O.3        1 MOL1        -0.3740
      67    C20     23.120756   23.725284   22.055997 C.3        1 MOL1         0.1003
      68    H32     23.316018   24.758484   21.741668 H          1 MOL1         0.0783
      69    O17     23.866336   23.464562   23.255254 O.3        1 MOL1        -0.5519
      70    H33     23.547277   22.593937   23.601061 H          1 MOL1         0.3769
      71    C21     21.592890   23.588955   22.295073 C.3        1 MOL1         0.1053
      72    H34     21.394994   22.585429   22.696429 H          1 MOL1         0.0783
      73    O18     21.143429   24.585223   23.221916 O.3        1 MOL1        -0.5519
      74    H35     20.166531   24.465169   23.319222 H          1 MOL1         0.3769
      75    C22     20.795239   23.748853   20.975375 C.3        1 MOL1         0.1018
      76    H36     20.767755   24.813916   20.710315 H          1 MOL1         0.0783
      77    C23     21.403692   22.947672   19.793257 C.3        1 MOL1         0.1043
      78    H37     21.211128   21.879928   19.960408 H          1 MOL1         0.0783
      79    O19     22.832099   23.188561   19.721022 O.3        1 MOL1        -0.3740
      80    C24     20.792091   23.323461   18.425874 C.3        1 MOL1         0.0138
      81    H38     19.719632   23.092343   18.439944 H          1 MOL1         0.0794
      82    H39     21.251382   22.696774   17.649864 H          1 MOL1         0.0794
      83    O20     20.995769   24.708716   18.131027 O.3        1 MOL1        -0.5486
      84    H40     21.965241   24.860524   18.190109 H          1 MOL1         0.3769
      85    C25     24.701000   17.786562   22.430517 C.3        1 MOL1         0.2972
      86    H41     25.269808   16.939964   22.834868 H          1 MOL1         0.0751
      87    O21     23.565652   17.345865   21.654095 O.3        1 MOL1        -0.3740
      88    C26     24.193015   18.695332   23.578400 C.3        1 MOL1         0.1003
      89    H42     25.073748   19.092629   24.099034 H          1 MOL1         0.0783
      90    O22     23.404414   17.934268   24.509187 O.3        1 MOL1        -0.5519
      91    H43     22.537009   18.407382   24.620875 H          1 MOL1         0.3769
      92    C27     23.402577   19.895428   22.998697 C.3        1 MOL1         0.1053
      93    H44     22.502558   19.504282   22.514677 H          1 MOL1         0.0783
      94    O23     23.027840   20.797555   24.047045 O.3        1 MOL1        -0.5519
      95    H45     22.220879   20.391714   24.462654 H          1 MOL1         0.3769
      96    C28     24.208622   20.645166   21.908617 C.3        1 MOL1         0.1018
      97    H46     24.973405   21.266482   22.392202 H          1 MOL1         0.0783
      98    C29     24.874696   19.678962   20.888097 C.3        1 MOL1         0.1043
      99    H47     24.087568   19.269721   20.241164 H          1 MOL1         0.0783
     100    O24     25.542747   18.595616   21.581410 O.3        1 MOL1        -0.3740
     101    C30     25.913745   20.367255   19.975349 C.3        1 MOL1         0.0138
     102    H48     25.403256   21.111147   19.349578 H          1 MOL1         0.0794
     103    H49     26.344055   19.614444   19.301259 H          1 MOL1         0.0794
     104    O25     26.945397   20.993084   20.743673 O.3        1 MOL1        -0.5486
     105    H50     27.341036   20.286029   21.300606 H          1 MOL1         0.3769
     106    C31     21.390761   13.864943   20.931368 C.3        1 MOL1         0.2972
     107    H51     21.078109   12.848070   20.663144 H          1 MOL1         0.0751
     108    O26     20.261298   14.737426   21.137404 O.3        1 MOL1        -0.3740
     109    C32     22.232591   13.837442   22.231544 C.3        1 MOL1         0.1003
     110    H52     23.111283   13.207913   22.039842 H          1 MOL1         0.0783
     111    O27     21.484300   13.282890   23.322663 O.3        1 MOL1        -0.5519
     112    H53     22.041159   13.453358   24.115512 H          1 MOL1         0.3769
     113    C33     22.734119   15.253284   22.602943 C.3        1 MOL1         0.1053
     114    H54     21.858770   15.859873   22.870878 H          1 MOL1         0.0783
     115    O28     23.613427   15.151663   23.729455 O.3        1 MOL1        -0.5519
     116    H55     23.627582   16.050681   24.142320 H          1 MOL1         0.3769
     117    C34     23.448872   15.931577   21.398810 C.3        1 MOL1         0.1018
     118    H56     24.434802   15.473487   21.244746 H          1 MOL1         0.0783
     119    C35     22.622153   15.803537   20.090069 C.3        1 MOL1         0.1043
     120    H57     21.735288   16.445857   20.175353 H          1 MOL1         0.0783
     121    O29     22.214557   14.427739   19.889898 O.3        1 MOL1        -0.3740
     122    C36     23.406537   16.243822   18.834068 C.3        1 MOL1         0.0138
     123    H58     23.713103   17.291538   18.950205 H          1 MOL1         0.0794
     124    H59     22.737598   16.190957   17.964827 H          1 MOL1         0.0794
     125    O30     24.553411   15.414047   18.627166 O.3        1 MOL1        -0.5486
     126    H60     24.220856   14.488738   18.624152 H          1 MOL1         0.3769
     127    C1      19.858443   18.753038   24.035575 C.2        1 MOL1         0.6021
     128    O1      20.858621   19.125192   24.621669 O.co2      1 MOL1        -0.6904
     129    O2      18.755224   18.681116   24.545092 O.co2      1 MOL1        -0.6904
     130    C2      19.994532   18.362826   22.565604 C.3        1 MOL1        -0.2102
     131    H1      19.275857   17.564956   22.349904 H          1 MOL1         0.0687
     132    H2      20.986716   17.927698   22.416968 H          1 MOL1         0.0687
     133    C3      19.784083   19.555686   21.599548 C.3        1 MOL1        -0.1974
     134    H3      18.783863   19.978151   21.752711 H          1 MOL1         0.0689
     135    H4      20.496460   20.356566   21.837058 H          1 MOL1         0.0689
     136    C4      19.949918   19.133788   20.126349 C.3        1 MOL1        -0.2987
     137    H5      19.233565   18.345292   19.864247 H          1 MOL1         0.0700
     138    H6      19.774137   19.985004   19.456871 H          1 MOL1         0.0700
     139    H7      20.964395   18.758766   19.940578 H          1 MOL1         0.0700
@<TRIPOS>BOND
    1     1     2    1
    2     1     3    1
    3     1     4    1
    4     4     5    1
    5     4     6    1
    6     6     7    1
    7     4     8    1
    8     8     9    1
    9     8    10    1
   10    10    11    1
   11     8    12    1
   12    12    13    1
   13    12    14    1
   14    14    15    1
   15     1    16    1
   16    14    16    1
   17    14    17    1
   18    17    18    1
   19    17    19    1
   20    17    20    1
   21    20    21    1
   22    22    23    1
   23    22    24    1
   24    22    25    1
   25    25    26    1
   26    25    27    1
   27    27    28    1
   28    25    29    1
   29    29    30    1
   30    29    31    1
   31    31    32    1
   32     3    33    1
   33    29    33    1
   34    33    34    1
   35    33    35    1
   36    35    36    1
   37    22    37    1
   38    35    37    1
   39    35    38    1
   40    38    39    1
   41    38    40    1
   42    38    41    1
   43    41    42    1
   44    43    44    1
   45    43    45    1
   46    43    46    1
   47    46    47    1
   48    46    48    1
   49    48    49    1
   50    46    50    1
   51    50    51    1
   52    50    52    1
   53    52    53    1
   54    24    54    1
   55    50    54    1
   56    54    55    1
   57    54    56    1
   58    56    57    1
   59    43    58    1
   60    56    58    1
   61    56    59    1
   62    59    60    1
   63    59    61    1
   64    59    62    1
   65    62    63    1
   66    64    65    1
   67    64    66    1
   68    64    67    1
   69    67    68    1
   70    67    69    1
   71    69    70    1
   72    67    71    1
   73    71    72    1
   74    71    73    1
   75    73    74    1
   76    45    75    1
   77    71    75    1
   78    75    76    1
   79    75    77    1
   80    77    78    1
   81    64    79    1
   82    77    79    1
   83    77    80    1
   84    80    81    1
   85    80    82    1
   86    80    83    1
   87    83    84    1
   88    85    86    1
   89    85    87    1
   90    85    88    1
   91    88    89    1
   92    88    90    1
   93    90    91    1
   94    88    92    1
   95    92    93    1
   96    92    94    1
   97    94    95    1
   98    66    96    1
   99    92    96    1
  100    96    97    1
  101    96    98    1
  102    98    99    1
  103    85   100    1
  104    98   100    1
  105    98   101    1
  106   101   102    1
  107   101   103    1
  108   101   104    1
  109   104   105    1
  110   106   107    1
  111    12   108    1
  112   106   108    1
  113   106   109    1
  114   109   110    1
  115   109   111    1
  116   111   112    1
  117   109   113    1
  118   113   114    1
  119   113   115    1
  120   115   116    1
  121    87   117    1
  122   113   117    1
  123   117   118    1
  124   117   119    1
  125   119   120    1
  126   106   121    1
  127   119   121    1
  128   119   122    1
  129   122   123    1
  130   122   124    1
  131   122   125    1
  132   125   126    1
  133   127   128    1
  134   127   129    2
  135   127   130    1
  136   130   131    1
  137   130   132    1
  138   130   133    1
  139   133   134    1
  140   133   135    1
  141   133   136    1
  142   136   137    1
  143   136   138    1
  144   136   139    1
@<TRIPOS>SUBSTRUCTURE
       1 MOL1            1 RESIDUE      1      MOL     
       2 MOL1          139 RESIDUE      1      MOL     
@<SCITEGIC>MOL_PROPERTY
VM2 Rank
SciTegic.value.IntegerValue
2

@<SCITEGIC>MOL_PROPERTY
Conf_Id
SciTegic.value.IntegerValue
16020

@<SCITEGIC>MOL_PROPERTY
Probability
SciTegic.value.DoubleValue
2.45

@<SCITEGIC>MOL_PROPERTY
Sum Probability
SciTegic.value.DoubleValue
5.13

@<SCITEGIC>MOL_PROPERTY
Delta G
SciTegic.value.DoubleValue
0.054

@<SCITEGIC>MOL_PROPERTY
G
SciTegic.value.DoubleValue
473.021

@<SCITEGIC>MOL_PROPERTY
E
SciTegic.value.DoubleValue
293.439

@<SCITEGIC>MOL_PROPERTY
-TS
SciTegic.value.DoubleValue
179.582

@<SCITEGIC>MOL_PROPERTY
U+W
SciTegic.value.DoubleValue
170.928

@<SCITEGIC>MOL_PROPERTY
U
SciTegic.value.DoubleValue
236.129

@<SCITEGIC>MOL_PROPERTY
W
SciTegic.value.DoubleValue
-65.201

@<SCITEGIC>MOL_PROPERTY
W(PB)
SciTegic.value.DoubleValue
-71.272

@<SCITEGIC>MOL_PROPERTY
W(SA)
SciTegic.value.DoubleValue
6.071

@<SCITEGIC>MOL_PROPERTY
Valence
SciTegic.value.DoubleValue
149.761

@<SCITEGIC>MOL_PROPERTY
Coulomb
SciTegic.value.DoubleValue
104.263

@<SCITEGIC>MOL_PROPERTY
VdW
SciTegic.value.DoubleValue
-17.895

@<SCITEGIC>MOL_PROPERTY
VdW6
SciTegic.value.DoubleValue
-175.222

@<SCITEGIC>MOL_PROPERTY
VdW12
SciTegic.value.DoubleValue
157.326

@<SCITEGIC>MOL_PROPERTY
Bond
SciTegic.value.DoubleValue
5.088

@<SCITEGIC>MOL_PROPERTY
Angle
SciTegic.value.DoubleValue
12.065

@<SCITEGIC>MOL_PROPERTY
Pdih
SciTegic.value.DoubleValue
132.608

@<SCITEGIC>MOL_PROPERTY
Idih
SciTegic.value.DoubleValue
0.000

@<SCITEGIC>MOL_PROPERTY
Tether
SciTegic.value.DoubleValue
0.000

@<TRIPOS>MOLECULE
CD_guest-6_vm2_rndm.mol2 : vm2 host+ligand conformer 3
         139         144           2
SMALL
USER_CHARGES
 
@<TRIPOS>ATOM
       1    C1      16.252077   15.164137   20.556325 C.3        1 MOL1         0.2972
       2    H1      15.193377   15.053565   20.289116 H          1 MOL1         0.0751
       3    O1      16.563335   16.530181   20.898556 O.3        1 MOL1        -0.3740
       4    C2      16.634342   14.210351   21.723190 C.3        1 MOL1         0.1003
       5    H2      16.461791   13.186759   21.366934 H          1 MOL1         0.0783
       6    O2      15.808250   14.437440   22.875571 O.3        1 MOL1        -0.5519
       7    H3      16.106398   15.294800   23.269813 H          1 MOL1         0.3769
       8    C3      18.141951   14.337299   22.070994 C.3        1 MOL1         0.1053
       9    H4      18.311355   15.328679   22.513366 H          1 MOL1         0.0783
      10    O3      18.526564   13.314383   22.998008 O.3        1 MOL1        -0.5519
      11    H5      19.492820   13.434577   23.171547 H          1 MOL1         0.3769
      12    C4      19.029014   14.214138   20.805718 C.3        1 MOL1         0.1018
      13    H6      19.075065   13.157349   20.511699 H          1 MOL1         0.0783
      14    C5      18.503220   15.050669   19.608555 C.3        1 MOL1         0.1043
      15    H7      18.682057   16.112818   19.820302 H          1 MOL1         0.0783
      16    O4      17.083577   14.812913   19.430069 O.3        1 MOL1        -0.3740
      17    C6      19.209266   14.715356   18.276629 C.3        1 MOL1         0.0138
      18    H8      20.277976   14.944291   18.372855 H          1 MOL1         0.0794
      19    H9      18.805115   15.365925   17.489662 H          1 MOL1         0.0794
      20    O5      19.027555   13.339926   17.926550 O.3        1 MOL1        -0.5486
      21    H10     18.056429   13.187800   17.913507 H          1 MOL1         0.3769
      22    C7      15.008026   20.128385   22.184162 C.3        1 MOL1         0.2972
      23    H11     14.405481   20.953593   22.584041 H          1 MOL1         0.0751
      24    O6      16.180412   20.609902   21.492005 O.3        1 MOL1        -0.3740
      25    C8      15.454863   19.181362   23.327205 C.3        1 MOL1         0.1003
      26    H12     14.547832   18.758354   23.777737 H          1 MOL1         0.0783
      27    O7      16.177382   19.911533   24.332924 O.3        1 MOL1        -0.5519
      28    H13     17.042831   19.443374   24.476744 H          1 MOL1         0.3769
      29    C9      16.290758   18.009263   22.755288 C.3        1 MOL1         0.1053
      30    H14     17.213829   18.424421   22.339274 H          1 MOL1         0.0783
      31    O8      16.610934   17.074651   23.793247 O.3        1 MOL1        -0.5519
      32    H15     17.388534   17.471568   24.269018 H          1 MOL1         0.3769
      33    C10     15.557012   17.292193   21.594967 C.3        1 MOL1         0.1018
      34    H16     14.765153   16.655742   22.010411 H          1 MOL1         0.0783
      35    C11     14.952337   18.290271   20.567011 C.3        1 MOL1         0.1043
      36    H17     15.777604   18.725726   19.987906 H          1 MOL1         0.0783
      37    O9      14.231061   19.345268   21.252494 O.3        1 MOL1        -0.3740
      38    C12     13.980855   17.628115   19.564801 C.3        1 MOL1         0.0138
      39    H18     14.536926   16.908019   18.950095 H          1 MOL1         0.0794
      40    H19     13.590752   18.400685   18.888724 H          1 MOL1         0.0794
      41    O10     12.905015   16.971939   20.241734 O.3        1 MOL1        -0.5486
      42    H20     12.469185   17.657407   20.795630 H          1 MOL1         0.3769
      43    C13     18.382778   24.110216   21.037610 C.3        1 MOL1         0.2972
      44    H21     18.717065   25.135433   20.835404 H          1 MOL1         0.0751
      45    O11     19.492789   23.212276   21.242692 O.3        1 MOL1        -0.3740
      46    C14     17.488944   24.081532   22.301651 C.3        1 MOL1         0.1003
      47    H22     16.623425   24.727499   22.104722 H          1 MOL1         0.0783
      48    O12     18.193402   24.575843   23.449242 O.3        1 MOL1        -0.5519
      49    H23     17.601392   24.374144   24.208503 H          1 MOL1         0.3769
      50    C15     16.962474   22.653649   22.580095 C.3        1 MOL1         0.1053
      51    H24     17.819154   22.029081   22.866563 H          1 MOL1         0.0783
      52    O13     16.023305   22.713058   23.660088 O.3        1 MOL1        -0.5519
      53    H25     15.982738   21.797813   24.033668 H          1 MOL1         0.3769
      54    C16     16.306692   22.034665   21.311883 C.3        1 MOL1         0.1018
      55    H26     15.328095   22.500812   21.136044 H          1 MOL1         0.0783
      56    C17     17.182991   22.225749   20.044509 C.3        1 MOL1         0.1043
      57    H27     18.062566   21.571364   20.116488 H          1 MOL1         0.0783
      58    O14     17.589720   23.612560   19.940201 O.3        1 MOL1        -0.3740
      59    C18     16.414182   21.869371   18.754793 C.3        1 MOL1         0.0138
      60    H28     15.540594   22.528078   18.659937 H          1 MOL1         0.0794
      61    H29     16.047473   20.836944   18.826132 H          1 MOL1         0.0794
      62    O15     17.269268   22.006130   17.618066 O.3        1 MOL1        -0.5486
      63    H30     17.631402   22.918843   17.660699 H          1 MOL1         0.3769
      64    C19     23.591713   22.790055   20.879291 C.3        1 MOL1         0.2972
      65    H31     24.665721   22.903522   20.683985 H          1 MOL1         0.0751
      66    O16     23.256304   21.415169   21.161389 O.3        1 MOL1        -0.3740
      67    C20     23.136774   23.716896   22.042457 C.3        1 MOL1         0.1003
      68    H32     23.329727   24.748382   21.721114 H          1 MOL1         0.0783
      69    O17     23.889882   23.464651   23.238509 O.3        1 MOL1        -0.5519
      70    H33     23.565736   22.601039   23.596769 H          1 MOL1         0.3769
      71    C21     21.610493   23.582194   22.291251 C.3        1 MOL1         0.1053
      72    H34     21.415000   22.578834   22.692792 H          1 MOL1         0.0783
      73    O18     21.162911   24.576750   23.221177 O.3        1 MOL1        -0.5519
      74    H35     20.185154   24.461167   23.314611 H          1 MOL1         0.3769
      75    C22     20.805620   23.742770   20.976788 C.3        1 MOL1         0.1018
      76    H36     20.776042   24.808378   20.714033 H          1 MOL1         0.0783
      77    C23     21.406635   22.942438   19.789977 C.3        1 MOL1         0.1043
      78    H37     21.208612   21.875720   19.955823 H          1 MOL1         0.0783
      79    O19     22.836157   23.175781   19.711838 O.3        1 MOL1        -0.3740
      80    C24     20.793638   23.325031   18.425131 C.3        1 MOL1         0.0138
      81    H38     19.721128   23.095634   18.439492 H          1 MOL1         0.0794
      82    H39     21.250696   22.700894   17.645718 H          1 MOL1         0.0794
      83    O20     20.999074   24.711175   18.135775 O.3        1 MOL1        -0.5486
      84    H40     21.969183   24.860557   18.190449 H          1 MOL1         0.3769
      85    C25     24.718692   17.788678   22.494115 C.3        1 MOL1         0.2972
      86    H41     25.293429   16.959318   22.925150 H          1 MOL1         0.0751
      87    O21     23.609818   17.313366   21.701196 O.3        1 MOL1        -0.3740
      88    C26     24.179006   18.714154   23.615913 C.3        1 MOL1         0.1003
      89    H42     25.046822   19.125365   24.147341 H          1 MOL1         0.0783
      90    O22     23.372050   17.971526   24.546202 O.3        1 MOL1        -0.5519
      91    H43     22.489455   18.426597   24.610436 H          1 MOL1         0.3769
      92    C27     23.393379   19.899201   23.004625 C.3        1 MOL1         0.1053
      93    H44     22.499919   19.490241   22.520725 H          1 MOL1         0.0783
      94    O23     23.012905   20.820497   24.034357 O.3        1 MOL1        -0.5519
      95    H45     22.220335   20.410175   24.471291 H          1 MOL1         0.3769
      96    C28     24.208665   20.634678   21.912664 C.3        1 MOL1         0.1018
      97    H46     24.969994   21.260359   22.395957 H          1 MOL1         0.0783
      98    C29     24.886891   19.653535   20.915541 C.3        1 MOL1         0.1043
      99    H47     24.106566   19.225258   20.272228 H          1 MOL1         0.0783
     100    O24     25.560493   18.591044   21.637691 O.3        1 MOL1        -0.3740
     101    C30     25.925934   20.332646   19.995839 C.3        1 MOL1         0.0138
     102    H48     25.413492   21.062418   19.355144 H          1 MOL1         0.0794
     103    H49     26.364449   19.571496   19.336693 H          1 MOL1         0.0794
     104    O25     26.949799   20.978480   20.757986 O.3        1 MOL1        -0.5486
     105    H50     27.344974   20.284747   21.331754 H          1 MOL1         0.3769
     106    C31     21.438753   13.827568   21.044962 C.3        1 MOL1         0.2972
     107    H51     21.113480   12.806351   20.810498 H          1 MOL1         0.0751
     108    O26     20.323647   14.734429   21.164503 O.3        1 MOL1        -0.3740
     109    C32     22.231026   13.842461   22.374941 C.3        1 MOL1         0.1003
     110    H52     23.108775   13.197358   22.238574 H          1 MOL1         0.0783
     111    O27     21.442831   13.337103   23.461135 O.3        1 MOL1        -0.5519
     112    H53     21.973092   13.538820   24.264860 H          1 MOL1         0.3769
     113    C33     22.736731   15.266210   22.706545 C.3        1 MOL1         0.1053
     114    H54     21.863062   15.896079   22.926696 H          1 MOL1         0.0783
     115    O28     23.586401   15.190394   23.857471 O.3        1 MOL1        -0.5519
     116    H55     23.594520   16.099988   24.246572 H          1 MOL1         0.3769
     117    C34     23.497066   15.889919   21.501064 C.3        1 MOL1         0.1018
     118    H56     24.486287   15.422868   21.405627 H          1 MOL1         0.0783
     119    C35     22.730220   15.707142   20.162765 C.3        1 MOL1         0.1043
     120    H57     21.852784   16.367173   20.161436 H          1 MOL1         0.0783
     121    O29     22.322189   14.323987   20.018101 O.3        1 MOL1        -0.3740
     122    C36     23.606546   16.062635   18.943597 C.3        1 MOL1         0.0138
     123    H58     24.479997   15.397436   18.918797 H          1 MOL1         0.0794
     124    H59     23.973428   17.092061   19.050194 H          1 MOL1         0.0794
     125    O30     22.847406   15.936712   17.739374 O.3        1 MOL1        -0.5486
     126    H60     22.467484   15.030225   17.753206 H          1 MOL1         0.3769
     127    C1      19.760412   19.137277   24.041224 C.2        1 MOL1         0.6021
     128    O1      20.826595   19.204548   24.625153 O.co2      1 MOL1        -0.6904
     129    O2      18.726179   18.745388   24.550308 O.co2      1 MOL1        -0.6904
     130    C2      19.721480   19.555046   22.573018 C.3        1 MOL1        -0.2102
     131    H1      20.452595   20.356138   22.420603 H          1 MOL1         0.0687
     132    H2      18.741457   19.994038   22.365595 H          1 MOL1         0.0687
     133    C3      19.996120   18.379483   21.601944 C.3        1 MOL1        -0.1974
     134    H3      20.972313   17.935758   21.831111 H          1 MOL1         0.0689
     135    H4      19.252877   17.586997   21.758931 H          1 MOL1         0.0689
     136    C4      19.967085   18.835514   20.129935 C.3        1 MOL1        -0.2987
     137    H5      20.733940   19.597468   19.944044 H          1 MOL1         0.0700
     138    H6      20.162718   17.991096   19.457529 H          1 MOL1         0.0700
     139    H7      18.987593   19.257581   19.870251 H          1 MOL1         0.0700
@<TRIPOS>BOND
    1     1     2    1
    2     1     3    1
    3     1     4    1
    4     4     5    1
    5     4     6    1
    6     6     7    1
    7     4     8    1
    8     8     9    1
    9     8    10    1
   10    10    11    1
   11     8    12    1
   12    12    13    1
   13    12    14    1
   14    14    15    1
   15     1    16    1
   16    14    16    1
   17    14    17    1
   18    17    18    1
   19    17    19    1
   20    17    20    1
   21    20    21    1
   22    22    23    1
   23    22    24    1
   24    22    25    1
   25    25    26    1
   26    25    27    1
   27    27    28    1
   28    25    29    1
   29    29    30    1
   30    29    31    1
   31    31    32    1
   32     3    33    1
   33    29    33    1
   34    33    34    1
   35    33    35    1
   36    35    36    1
   37    22    37    1
   38    35    37    1
   39    35    38    1
   40    38    39    1
   41    38    40    1
   42    38    41    1
   43    41    42    1
   44    43    44    1
   45    43    45    1
   46    43    46    1
   47    46    47    1
   48    46    48    1
   49    48    49    1
   50    46    50    1
   51    50    51    1
   52    50    52    1
   53    52    53    1
   54    24    54    1
   55    50    54    1
   56    54    55    1
   57    54    56    1
   58    56    57    1
   59    43    58    1
   60    56    58    1
   61    56    59    1
   62    59    60    1
   63    59    61    1
   64    59    62    1
   65    62    63    1
   66    64    65    1
   67    64    66    1
   68    64    67    1
   69    67    68    1
   70    67    69    1
   71    69    70    1
   72    67    71    1
   73    71    72    1
   74    71    73    1
   75    73    74    1
   76    45    75    1
   77    71    75    1
   78    75    76    1
   79    75    77    1
   80    77    78    1
   81    64    79    1
   82    77    79    1
   83    77    80    1
   84    80    81    1
   85    80    82    1
   86    80    83    1
   87    83    84    1
   88    85    86    1
   89    85    87    1
   90    85    88    1
   91    88    89    1
   92    88    90    1
   93    90    91    1
   94    88    92    1
   95    92    93    1
   96    92    94    1
   97    94    95    1
   98    66    96    1
   99    92    96    1
  100    96    97    1
  101    96    98    1
  102    98    99    1
  103    85   100    1
  104    98   100    1
  105    98   101    1
  106   101   102    1
  107   101   103    1
  108   101   104    1
  109   104   105    1
  110   106   107    1
  111    12   108    1
  112   106   108    1
  113   106   109    1
  114   109   110    1
  115   109   111    1
  116   111   112    1
  117   109   113    1
  118   113   114    1
  119   113   115    1
  120   115   116    1
  121    87   117    1
  122   113   117    1
  123   117   118    1
  124   117   119    1
  125   119   120    1
  126   106   121    1
  127   119   121    1
  128   119   122    1
  129   122   123    1
  130   122   124    1
  131   122   125    1
  132   125   126    1
  133   127   128    1
  134   127   129    2
  135   127   130    1
  136   130   131    1
  137   130   132    1
  138   130   133    1
  139   133   134    1
  140   133   135    1
  141   133   136    1
  142   136   137    1
  143   136   138    1
  144   136   139    1
@<TRIPOS>SUBSTRUCTURE
       1 MOL1            1 RESIDUE      1      MOL     
       2 MOL1          139 RESIDUE      1      MOL     
@<SCITEGIC>MOL_PROPERTY
VM2 Rank
SciTegic.value.IntegerValue
3

@<SCITEGIC>MOL_PROPERTY
Conf_Id
SciTegic.value.IntegerValue
11501

@<SCITEGIC>MOL_PROPERTY
Probability
SciTegic.value.DoubleValue
2.12

@<SCITEGIC>MOL_PROPERTY
Sum Probability
SciTegic.value.DoubleValue
7.26

@<SCITEGIC>MOL_PROPERTY
Delta G
SciTegic.value.DoubleValue
0.139

@<SCITEGIC>MOL_PROPERTY
G
SciTegic.value.DoubleValue
473.107

@<SCITEGIC>MOL_PROPERTY
E
SciTegic.value.DoubleValue
293.521

@<SCITEGIC>MOL_PROPERTY
-TS
SciTegic.value.DoubleValue
179.586

@<SCITEGIC>MOL_PROPERTY
U+W
SciTegic.value.DoubleValue
171.010

@<SCITEGIC>MOL_PROPERTY
U
SciTegic.value.DoubleValue
236.460

@<SCITEGIC>MOL_PROPERTY
W
SciTegic.value.DoubleValue
-65.451

@<SCITEGIC>MOL_PROPERTY
W(PB)
SciTegic.value.DoubleValue
-71.515

@<SCITEGIC>MOL_PROPERTY
W(SA)
SciTegic.value.DoubleValue
6.064

@<SCITEGIC>MOL_PROPERTY
Valence
SciTegic.value.DoubleValue
149.967

@<SCITEGIC>MOL_PROPERTY
Coulomb
SciTegic.value.DoubleValue
104.838

@<SCITEGIC>MOL_PROPERTY
VdW
SciTegic.value.DoubleValue
-18.345

@<SCITEGIC>MOL_PROPERTY
VdW6
SciTegic.value.DoubleValue
-175.286

@<SCITEGIC>MOL_PROPERTY
VdW12
SciTegic.value.DoubleValue
156.941

@<SCITEGIC>MOL_PROPERTY
Bond
SciTegic.value.DoubleValue
5.067

@<SCITEGIC>MOL_PROPERTY
Angle
SciTegic.value.DoubleValue
11.991

@<SCITEGIC>MOL_PROPERTY
Pdih
SciTegic.value.DoubleValue
132.908

@<SCITEGIC>MOL_PROPERTY
Idih
SciTegic.value.DoubleValue
0.000

@<SCITEGIC>MOL_PROPERTY
Tether
SciTegic.value.DoubleValue
0.000

@<TRIPOS>MOLECULE
CD_guest-6_vm2_rndm.mol2 : vm2 host+ligand conformer 4
         139         144           2
SMALL
USER_CHARGES
 
@<TRIPOS>ATOM
       1    C1      16.196167   15.187287   20.554991 C.3        1 MOL1         0.2972
       2    H1      15.131365   15.082267   20.310539 H          1 MOL1         0.0751
       3    O1      16.523509   16.554484   20.881963 O.3        1 MOL1        -0.3740
       4    C2      16.597481   14.233798   21.715646 C.3        1 MOL1         0.1003
       5    H2      16.425929   13.209701   21.360300 H          1 MOL1         0.0783
       6    O2      15.785196   14.453395   22.878815 O.3        1 MOL1        -0.5519
       7    H3      16.089017   15.307558   23.275411 H          1 MOL1         0.3769
       8    C3      18.109340   14.370095   22.039199 C.3        1 MOL1         0.1053
       9    H4      18.280917   15.366188   22.468656 H          1 MOL1         0.0783
      10    O3      18.519131   13.359686   22.969544 O.3        1 MOL1        -0.5519
      11    H5      19.494978   13.463058   23.091946 H          1 MOL1         0.3769
      12    C4      18.975921   14.237707   20.761377 C.3        1 MOL1         0.1018
      13    H6      19.029033   13.175597   20.488250 H          1 MOL1         0.0783
      14    C5      18.426039   15.048089   19.555738 C.3        1 MOL1         0.1043
      15    H7      18.619207   16.113483   19.736526 H          1 MOL1         0.0783
      16    O4      17.000318   14.821213   19.414328 O.3        1 MOL1        -0.3740
      17    C6      19.092534   14.669541   18.214447 C.3        1 MOL1         0.0138
      18    H8      20.167051   14.885431   18.272193 H          1 MOL1         0.0794
      19    H9      18.673916   15.304145   17.422001 H          1 MOL1         0.0794
      20    O5      18.881689   13.288188   17.906277 O.3        1 MOL1        -0.5486
      21    H10     17.908376   13.150475   17.924059 H          1 MOL1         0.3769
      22    C7      14.997954   20.149900   22.239926 C.3        1 MOL1         0.2972
      23    H11     14.399166   20.965996   22.663481 H          1 MOL1         0.0751
      24    O6      16.149839   20.648897   21.526674 O.3        1 MOL1        -0.3740
      25    C8      15.472911   19.188923   23.361124 C.3        1 MOL1         0.1003
      26    H12     14.575923   18.762214   23.827998 H          1 MOL1         0.0783
      27    O7      16.222681   19.901236   24.360177 O.3        1 MOL1        -0.5519
      28    H13     17.097574   19.439697   24.467866 H          1 MOL1         0.3769
      29    C9      16.292781   18.021947   22.759566 C.3        1 MOL1         0.1053
      30    H14     17.212372   18.442496   22.338464 H          1 MOL1         0.0783
      31    O8      16.614043   17.070515   23.781879 O.3        1 MOL1        -0.5519
      32    H15     17.377750   17.467784   24.278290 H          1 MOL1         0.3769
      33    C10     15.537137   17.321103   21.603427 C.3        1 MOL1         0.1018
      34    H16     14.747148   16.687261   22.026503 H          1 MOL1         0.0783
      35    C11     14.919131   18.333820   20.598742 C.3        1 MOL1         0.1043
      36    H17     15.735823   18.778918   20.014655 H          1 MOL1         0.0783
      37    O9      14.206229   19.376137   21.312417 O.3        1 MOL1        -0.3740
      38    C12     13.933889   17.685301   19.601025 C.3        1 MOL1         0.0138
      39    H18     14.481255   16.972323   18.970343 H          1 MOL1         0.0794
      40    H19     13.535853   18.466686   18.939873 H          1 MOL1         0.0794
      41    O10     12.866304   17.021477   20.283626 O.3        1 MOL1        -0.5486
      42    H20     12.439919   17.699876   20.853375 H          1 MOL1         0.3769
      43    C13     18.352566   24.152270   21.110360 C.3        1 MOL1         0.2972
      44    H21     18.688305   25.181161   20.931151 H          1 MOL1         0.0751
      45    O11     19.461824   23.241814   21.256343 O.3        1 MOL1        -0.3740
      46    C14     17.483659   24.093227   22.390353 C.3        1 MOL1         0.1003
      47    H22     16.612824   24.740245   22.222216 H          1 MOL1         0.0783
      48    O12     18.201717   24.566300   23.537349 O.3        1 MOL1        -0.5519
      49    H23     17.624441   24.337061   24.300418 H          1 MOL1         0.3769
      50    C15     16.964238   22.659816   22.646541 C.3        1 MOL1         0.1053
      51    H24     17.825261   22.022783   22.894306 H          1 MOL1         0.0783
      52    O13     16.050911   22.699310   23.749558 O.3        1 MOL1        -0.5519
      53    H25     16.021035   21.777587   24.107826 H          1 MOL1         0.3769
      54    C16     16.273117   22.078275   21.380485 C.3        1 MOL1         0.1018
      55    H26     15.290201   22.549365   21.247038 H          1 MOL1         0.0783
      56    C17     17.111099   22.305539   20.092083 C.3        1 MOL1         0.1043
      57    H27     17.985099   21.640779   20.112973 H          1 MOL1         0.0783
      58    O14     17.531762   23.691710   20.016496 O.3        1 MOL1        -0.3740
      59    C18     16.293861   21.996547   18.819912 C.3        1 MOL1         0.0138
      60    H28     15.441327   22.686287   18.760925 H          1 MOL1         0.0794
      61    H29     15.893336   20.976318   18.886777 H          1 MOL1         0.0794
      62    O15     17.118455   22.119764   17.659783 O.3        1 MOL1        -0.5486
      63    H30     17.538864   23.005764   17.715511 H          1 MOL1         0.3769
      64    C19     23.570587   22.849296   20.942183 C.3        1 MOL1         0.2972
      65    H31     24.645353   22.970558   20.756044 H          1 MOL1         0.0751
      66    O16     23.239309   21.473347   21.217161 O.3        1 MOL1        -0.3740
      67    C20     23.100095   23.761741   22.108409 C.3        1 MOL1         0.1003
      68    H32     23.298215   24.796768   21.801984 H          1 MOL1         0.0783
      69    O17     23.837262   23.493114   23.311164 O.3        1 MOL1        -0.5519
      70    H33     23.522751   22.615956   23.644450 H          1 MOL1         0.3769
      71    C21     21.570389   23.625297   22.336371 C.3        1 MOL1         0.1053
      72    H34     21.371118   22.624675   22.744488 H          1 MOL1         0.0783
      73    O18     21.118473   24.629300   23.253080 O.3        1 MOL1        -0.5519
      74    H35     20.144976   24.496785   23.366831 H          1 MOL1         0.3769
      75    C22     20.778007   23.775046   21.010847 C.3        1 MOL1         0.1018
      76    H36     20.748819   24.837681   20.735728 H          1 MOL1         0.0783
      77    C23     21.394815   22.973483   19.834428 C.3        1 MOL1         0.1043
      78    H37     21.205559   21.903557   19.992258 H          1 MOL1         0.0783
      79    O19     22.819634   23.238659   19.773101 O.3        1 MOL1        -0.3740
      80    C24     20.788270   23.375073   18.474311 C.3        1 MOL1         0.0138
      81    H38     20.974889   24.442131   18.294236 H          1 MOL1         0.0794
      82    H39     19.701873   23.223357   18.504216 H          1 MOL1         0.0794
      83    O20     21.360887   22.583938   17.431702 O.3        1 MOL1        -0.5486
      84    H40     22.333247   22.611561   17.575830 H          1 MOL1         0.3769
      85    C25     24.698885   17.821831   22.437102 C.3        1 MOL1         0.2972
      86    H41     25.268335   16.971818   22.833288 H          1 MOL1         0.0751
      87    O21     23.565480   17.387848   21.654094 O.3        1 MOL1        -0.3740
      88    C26     24.187261   18.717212   23.593839 C.3        1 MOL1         0.1003
      89    H42     25.066270   19.110767   24.120193 H          1 MOL1         0.0783
      90    O22     23.398797   17.944213   24.514889 O.3        1 MOL1        -0.5519
      91    H43     22.531738   18.416233   24.633503 H          1 MOL1         0.3769
      92    C27     23.395266   19.921760   23.025477 C.3        1 MOL1         0.1053
      93    H44     22.496787   19.533809   22.535950 H          1 MOL1         0.0783
      94    O23     23.016837   20.812734   24.082106 O.3        1 MOL1        -0.5519
      95    H45     22.210453   20.400824   24.492876 H          1 MOL1         0.3769
      96    C28     24.201373   20.684479   21.944509 C.3        1 MOL1         0.1018
      97    H46     24.962958   21.303905   22.435532 H          1 MOL1         0.0783
      98    C29     24.871812   19.730651   20.915197 C.3        1 MOL1         0.1043
      99    H47     24.086845   19.326676   20.262320 H          1 MOL1         0.0783
     100    O24     25.540764   18.641441   21.598360 O.3        1 MOL1        -0.3740
     101    C30     25.911158   20.430610   20.011735 C.3        1 MOL1         0.0138
     102    H48     25.400125   21.179055   19.391927 H          1 MOL1         0.0794
     103    H49     26.345131   19.685548   19.331412 H          1 MOL1         0.0794
     104    O25     26.939244   21.051805   20.788555 O.3        1 MOL1        -0.5486
     105    H50     27.335706   20.340450   21.339382 H          1 MOL1         0.3769
     106    C31     21.401086   13.910246   20.884532 C.3        1 MOL1         0.2972
     107    H51     21.091960   12.895835   20.603225 H          1 MOL1         0.0751
     108    O26     20.268635   14.776669   21.099511 O.3        1 MOL1        -0.3740
     109    C32     22.241071   13.869198   22.185606 C.3        1 MOL1         0.1003
     110    H52     23.122104   13.244963   21.987446 H          1 MOL1         0.0783
     111    O27     21.493012   13.298711   23.268623 O.3        1 MOL1        -0.5519
     112    H53     22.047943   13.461593   24.064418 H          1 MOL1         0.3769
     113    C33     22.737393   15.281947   22.575268 C.3        1 MOL1         0.1053
     114    H54     21.859537   15.882493   22.848462 H          1 MOL1         0.0783
     115    O28     23.614479   15.169846   23.702530 O.3        1 MOL1        -0.5519
     116    H55     23.625489   16.064214   24.125487 H          1 MOL1         0.3769
     117    C34     23.452521   15.976710   21.380836 C.3        1 MOL1         0.1018
     118    H56     24.439782   15.522919   21.222652 H          1 MOL1         0.0783
     119    C35     22.627967   15.862914   20.069380 C.3        1 MOL1         0.1043
     120    H57     21.739126   16.501544   20.161530 H          1 MOL1         0.0783
     121    O29     22.224682   14.488505   19.851374 O.3        1 MOL1        -0.3740
     122    C36     23.412668   16.321304   18.820065 C.3        1 MOL1         0.0138
     123    H58     23.715669   17.368486   18.949590 H          1 MOL1         0.0794
     124    H59     22.745076   16.277193   17.949298 H          1 MOL1         0.0794
     125    O30     24.562451   15.497758   18.604486 O.3        1 MOL1        -0.5486
     126    H60     24.232782   14.571546   18.589277 H          1 MOL1         0.3769
     127    C1      19.854467   18.754141   24.054843 C.2        1 MOL1         0.6021
     128    O1      18.753246   18.663703   24.565724 O.co2      1 MOL1        -0.6904
     129    O2      20.851693   19.130761   24.643140 O.co2      1 MOL1        -0.6904
     130    C2      19.991705   18.381840   22.580468 C.3        1 MOL1        -0.2102
     131    H1      19.276905   17.583015   22.355632 H          1 MOL1         0.0687
     132    H2      20.985935   17.953392   22.426436 H          1 MOL1         0.0687
     133    C3      19.775385   19.584676   21.628181 C.3        1 MOL1        -0.1974
     134    H3      18.774172   20.002603   21.786957 H          1 MOL1         0.0689
     135    H4      20.485808   20.385182   21.872724 H          1 MOL1         0.0689
     136    C4      19.939907   19.179205   20.150321 C.3        1 MOL1        -0.2987
     137    H5      19.224039   18.393240   19.879794 H          1 MOL1         0.0700
     138    H6      19.763256   20.037861   19.490122 H          1 MOL1         0.0700
     139    H7      20.954628   18.807836   19.958869 H          1 MOL1         0.0700
@<TRIPOS>BOND
    1     1     2    1
    2     1     3    1
    3     1     4    1
    4     4     5    1
    5     4     6    1
    6     6     7    1
    7     4     8    1
    8     8     9    1
    9     8    10    1
   10    10    11    1
   11     8    12    1
   12    12    13    1
   13    12    14    1
   14    14    15    1
   15     1    16    1
   16    14    16    1
   17    14    17    1
   18    17    18    1
   19    17    19    1
   20    17    20    1
   21    20    21    1
   22    22    23    1
   23    22    24    1
   24    22    25    1
   25    25    26    1
   26    25    27    1
   27    27    28    1
   28    25    29    1
   29    29    30    1
   30    29    31    1
   31    31    32    1
   32     3    33    1
   33    29    33    1
   34    33    34    1
   35    33    35    1
   36    35    36    1
   37    22    37    1
   38    35    37    1
   39    35    38    1
   40    38    39    1
   41    38    40    1
   42    38    41    1
   43    41    42    1
   44    43    44    1
   45    43    45    1
   46    43    46    1
   47    46    47    1
   48    46    48    1
   49    48    49    1
   50    46    50    1
   51    50    51    1
   52    50    52    1
   53    52    53    1
   54    24    54    1
   55    50    54    1
   56    54    55    1
   57    54    56    1
   58    56    57    1
   59    43    58    1
   60    56    58    1
   61    56    59    1
   62    59    60    1
   63    59    61    1
   64    59    62    1
   65    62    63    1
   66    64    65    1
   67    64    66    1
   68    64    67    1
   69    67    68    1
   70    67    69    1
   71    69    70    1
   72    67    71    1
   73    71    72    1
   74    71    73    1
   75    73    74    1
   76    45    75    1
   77    71    75    1
   78    75    76    1
   79    75    77    1
   80    77    78    1
   81    64    79    1
   82    77    79    1
   83    77    80    1
   84    80    81    1
   85    80    82    1
   86    80    83    1
   87    83    84    1
   88    85    86    1
   89    85    87    1
   90    85    88    1
   91    88    89    1
   92    88    90    1
   93    90    91    1
   94    88    92    1
   95    92    93    1
   96    92    94    1
   97    94    95    1
   98    66    96    1
   99    92    96    1
  100    96    97    1
  101    96    98    1
  102    98    99    1
  103    85   100    1
  104    98   100    1
  105    98   101    1
  106   101   102    1
  107   101   103    1
  108   101   104    1
  109   104   105    1
  110   106   107    1
  111    12   108    1
  112   106   108    1
  113   106   109    1
  114   109   110    1
  115   109   111    1
  116   111   112    1
  117   109   113    1
  118   113   114    1
  119   113   115    1
  120   115   116    1
  121    87   117    1
  122   113   117    1
  123   117   118    1
  124   117   119    1
  125   119   120    1
  126   106   121    1
  127   119   121    1
  128   119   122    1
  129   122   123    1
  130   122   124    1
  131   122   125    1
  132   125   126    1
  133   127   128    1
  134   127   129    2
  135   127   130    1
  136   130   131    1
  137   130   132    1
  138   130   133    1
  139   133   134    1
  140   133   135    1
  141   133   136    1
  142   136   137    1
  143   136   138    1
  144   136   139    1
@<TRIPOS>SUBSTRUCTURE
       1 MOL1            1 RESIDUE      1      MOL     
       2 MOL1          139 RESIDUE      1      MOL     
@<SCITEGIC>MOL_PROPERTY
VM2 Rank
SciTegic.value.IntegerValue
4

@<SCITEGIC>MOL_PROPERTY
Conf_Id
SciTegic.value.IntegerValue
20782

@<SCITEGIC>MOL_PROPERTY
Probability
SciTegic.value.DoubleValue
1.87

@<SCITEGIC>MOL_PROPERTY
Sum Probability
SciTegic.value.DoubleValue
9.13

@<SCITEGIC>MOL_PROPERTY
Delta G
SciTegic.value.DoubleValue
0.215

@<SCITEGIC>MOL_PROPERTY
G
SciTegic.value.DoubleValue
473.182

@<SCITEGIC>MOL_PROPERTY
E
SciTegic.value.DoubleValue
293.943

@<SCITEGIC>MOL_PROPERTY
-TS
SciTegic.value.DoubleValue
179.239

@<SCITEGIC>MOL_PROPERTY
U+W
SciTegic.value.DoubleValue
171.432

@<SCITEGIC>MOL_PROPERTY
U
SciTegic.value.DoubleValue
238.047

@<SCITEGIC>MOL_PROPERTY
W
SciTegic.value.DoubleValue
-66.615

@<SCITEGIC>MOL_PROPERTY
W(PB)
SciTegic.value.DoubleValue
-72.681

@<SCITEGIC>MOL_PROPERTY
W(SA)
SciTegic.value.DoubleValue
6.066

@<SCITEGIC>MOL_PROPERTY
Valence
SciTegic.value.DoubleValue
150.231

@<SCITEGIC>MOL_PROPERTY
Coulomb
SciTegic.value.DoubleValue
105.896

@<SCITEGIC>MOL_PROPERTY
VdW
SciTegic.value.DoubleValue
-18.079

@<SCITEGIC>MOL_PROPERTY
VdW6
SciTegic.value.DoubleValue
-174.597

@<SCITEGIC>MOL_PROPERTY
VdW12
SciTegic.value.DoubleValue
156.518

@<SCITEGIC>MOL_PROPERTY
Bond
SciTegic.value.DoubleValue
5.073

@<SCITEGIC>MOL_PROPERTY
Angle
SciTegic.value.DoubleValue
12.017

@<SCITEGIC>MOL_PROPERTY
Pdih
SciTegic.value.DoubleValue
133.141

@<SCITEGIC>MOL_PROPERTY
Idih
SciTegic.value.DoubleValue
0.000

@<SCITEGIC>MOL_PROPERTY
Tether
SciTegic.value.DoubleValue
0.000

@<TRIPOS>MOLECULE
CD_guest-6_vm2_rndm.mol2 : vm2 host+ligand conformer 5
         139         144           2
SMALL
USER_CHARGES
 
@<TRIPOS>ATOM
       1    C1      16.226007   15.190785   20.530441 C.3        1 MOL1         0.2972
       2    H1      15.162837   15.083849   20.279861 H          1 MOL1         0.0751
       3    O1      16.548734   16.557140   20.861969 O.3        1 MOL1        -0.3740
       4    C2      16.621978   14.240133   21.694719 C.3        1 MOL1         0.1003
       5    H2      16.448020   13.215472   21.342215 H          1 MOL1         0.0783
       6    O2      15.807094   14.466996   22.854942 O.3        1 MOL1        -0.5519
       7    H3      16.108691   15.324519   23.246136 H          1 MOL1         0.3769
       8    C3      18.133263   14.371976   22.023840 C.3        1 MOL1         0.1053
       9    H4      18.306744   15.366415   22.457520 H          1 MOL1         0.0783
      10    O3      18.531346   13.355794   22.952581 O.3        1 MOL1        -0.5519
      11    H5      19.503930   13.464140   23.095603 H          1 MOL1         0.3769
      12    C4      19.004866   14.240622   20.748590 C.3        1 MOL1         0.1018
      13    H6      19.053505   13.180167   20.468419 H          1 MOL1         0.0783
      14    C5      18.461603   15.059044   19.546162 C.3        1 MOL1         0.1043
      15    H7      18.649584   16.123771   19.736414 H          1 MOL1         0.0783
      16    O4      17.037802   14.828128   19.393939 O.3        1 MOL1        -0.3740
      17    C6      19.141014   14.692718   18.208100 C.3        1 MOL1         0.0138
      18    H8      20.216030   14.902620   18.281159 H          1 MOL1         0.0794
      19    H9      18.734173   15.338253   17.418388 H          1 MOL1         0.0794
      20    O5      18.927296   13.315883   17.882226 O.3        1 MOL1        -0.5486
      21    H10     17.953435   13.181349   17.894204 H          1 MOL1         0.3769
      22    C7      15.011143   20.159716   22.168443 C.3        1 MOL1         0.2972
      23    H11     14.409721   20.983175   22.573480 H          1 MOL1         0.0751
      24    O6      16.182669   20.644769   21.476420 O.3        1 MOL1        -0.3740
      25    C8      15.460482   19.206982   23.305924 C.3        1 MOL1         0.1003
      26    H12     14.554128   18.782639   23.756570 H          1 MOL1         0.0783
      27    O7      16.185730   19.930958   24.314170 O.3        1 MOL1        -0.5519
      28    H13     17.047033   19.456256   24.460753 H          1 MOL1         0.3769
      29    C9      16.293089   18.036240   22.725995 C.3        1 MOL1         0.1053
      30    H14     17.214648   18.451473   22.307025 H          1 MOL1         0.0783
      31    O8      16.615692   17.097900   23.759758 O.3        1 MOL1        -0.5519
      32    H15     17.393823   17.492541   24.236669 H          1 MOL1         0.3769
      33    C10     15.551949   17.324568   21.566775 C.3        1 MOL1         0.1018
      34    H16     14.758367   16.691835   21.984751 H          1 MOL1         0.0783
      35    C11     14.947001   18.328431   20.544790 C.3        1 MOL1         0.1043
      36    H17     15.771012   18.766323   19.965908 H          1 MOL1         0.0783
      37    O9      14.229413   19.380095   21.237916 O.3        1 MOL1        -0.3740
      38    C12     13.971583   17.672946   19.542051 C.3        1 MOL1         0.0138
      39    H18     14.524730   16.954837   18.922381 H          1 MOL1         0.0794
      40    H19     13.581121   18.449840   18.871054 H          1 MOL1         0.0794
      41    O10     12.896442   17.015228   20.218719 O.3        1 MOL1        -0.5486
      42    H20     12.462980   17.699210   20.776310 H          1 MOL1         0.3769
      43    C13     18.394770   24.147577   21.070179 C.3        1 MOL1         0.2972
      44    H21     18.731128   25.175072   20.884157 H          1 MOL1         0.0751
      45    O11     19.503177   23.247916   21.273098 O.3        1 MOL1        -0.3740
      46    C14     17.487677   24.108092   22.324291 C.3        1 MOL1         0.1003
      47    H22     16.625405   24.757697   22.125008 H          1 MOL1         0.0783
      48    O12     18.183673   24.591002   23.481879 O.3        1 MOL1        -0.5519
      49    H23     17.585378   24.382752   24.234463 H          1 MOL1         0.3769
      50    C15     16.955095   22.679843   22.586493 C.3        1 MOL1         0.1053
      51    H24     17.808559   22.051033   22.873027 H          1 MOL1         0.0783
      52    O13     16.010830   22.733271   23.662474 O.3        1 MOL1        -0.5519
      53    H25     15.970889   21.816264   24.031654 H          1 MOL1         0.3769
      54    C16     16.306659   22.072252   21.308873 C.3        1 MOL1         0.1018
      55    H26     15.327720   22.537239   21.132515 H          1 MOL1         0.0783
      56    C17     17.195575   22.277146   20.050888 C.3        1 MOL1         0.1043
      57    H27     18.073943   21.622959   20.136447 H          1 MOL1         0.0783
      58    O14     17.619464   23.660527   19.956377 O.3        1 MOL1        -0.3740
      59    C18     16.470204   21.920733   18.734405 C.3        1 MOL1         0.0138
      60    H28     16.152273   20.870485   18.772191 H          1 MOL1         0.0794
      61    H29     17.180881   22.019995   17.903008 H          1 MOL1         0.0794
      62    O15     15.339396   22.771559   18.524090 O.3        1 MOL1        -0.5486
      63    H30     15.676626   23.692516   18.593613 H          1 MOL1         0.3769
      64    C19     23.603801   22.828571   20.925972 C.3        1 MOL1         0.2972
      65    H31     24.678220   22.944929   20.734695 H          1 MOL1         0.0751
      66    O16     23.267908   21.452130   21.197119 O.3        1 MOL1        -0.3740
      67    C20     23.143097   23.745583   22.094071 C.3        1 MOL1         0.1003
      68    H32     23.341307   24.779473   21.783884 H          1 MOL1         0.0783
      69    O17     23.886312   23.479679   23.293361 O.3        1 MOL1        -0.5519
      70    H33     23.565700   22.608191   23.635447 H          1 MOL1         0.3769
      71    C21     21.614697   23.612306   22.330056 C.3        1 MOL1         0.1053
      72    H34     21.416025   22.609162   22.731070 H          1 MOL1         0.0783
      73    O18     21.160227   24.608033   23.255352 O.3        1 MOL1        -0.5519
      74    H35     20.183470   24.485549   23.350635 H          1 MOL1         0.3769
      75    C22     20.818420   23.772671   21.009703 C.3        1 MOL1         0.1018
      76    H36     20.794273   24.837065   20.740741 H          1 MOL1         0.0783
      77    C23     21.422457   22.970054   19.827256 C.3        1 MOL1         0.1043
      78    H37     21.223371   21.902098   19.984841 H          1 MOL1         0.0783
      79    O19     22.849627   23.222106   19.760304 O.3        1 MOL1        -0.3740
      80    C24     20.817608   23.379832   18.468279 C.3        1 MOL1         0.0138
      81    H38     21.035884   24.439216   18.278471 H          1 MOL1         0.0794
      82    H39     19.727283   23.262997   18.503730 H          1 MOL1         0.0794
      83    O20     21.357561   22.562551   17.428257 O.3        1 MOL1        -0.5486
      84    H40     22.332896   22.574613   17.554125 H          1 MOL1         0.3769
      85    C25     24.712606   17.804565   22.467105 C.3        1 MOL1         0.2972
      86    H41     25.279297   16.961111   22.881004 H          1 MOL1         0.0751
      87    O21     23.597009   17.356821   21.667237 O.3        1 MOL1        -0.3740
      88    C26     24.179806   18.710671   23.607139 C.3        1 MOL1         0.1003
      89    H42     25.050062   19.105162   24.147158 H          1 MOL1         0.0783
      90    O22     23.367161   17.953367   24.520804 O.3        1 MOL1        -0.5519
      91    H43     22.485505   18.409776   24.588707 H          1 MOL1         0.3769
      92    C27     23.402260   19.912553   23.017785 C.3        1 MOL1         0.1053
      93    H44     22.505158   19.518421   22.527918 H          1 MOL1         0.0783
      94    O23     23.027869   20.818672   24.063051 O.3        1 MOL1        -0.5519
      95    H45     22.232255   20.405521   24.491757 H          1 MOL1         0.3769
      96    C28     24.220432   20.662631   21.937695 C.3        1 MOL1         0.1018
      97    H46     24.980412   21.282141   22.431003 H          1 MOL1         0.0783
      98    C29     24.899481   19.697100   20.925862 C.3        1 MOL1         0.1043
      99    H47     24.120850   19.284284   20.270803 H          1 MOL1         0.0783
     100    O24     25.563453   18.618315   21.631034 O.3        1 MOL1        -0.3740
     101    C30     25.946573   20.387159   20.023717 C.3        1 MOL1         0.0138
     102    H48     25.440808   21.129073   19.391821 H          1 MOL1         0.0794
     103    H49     26.386084   19.634795   19.355096 H          1 MOL1         0.0794
     104    O25     26.968263   21.016642   20.802301 O.3        1 MOL1        -0.5486
     105    H50     27.358495   20.311621   21.365607 H          1 MOL1         0.3769
     106    C31     21.424314   13.884107   20.920749 C.3        1 MOL1         0.2972
     107    H51     21.106461   12.867791   20.656687 H          1 MOL1         0.0751
     108    O26     20.300776   14.772867   21.086127 O.3        1 MOL1        -0.3740
     109    C32     22.235332   13.862956   22.240132 C.3        1 MOL1         0.1003
     110    H52     23.116740   13.230560   22.071662 H          1 MOL1         0.0783
     111    O27     21.465300   13.316225   23.319351 O.3        1 MOL1        -0.5519
     112    H53     22.003439   13.499277   24.122414 H          1 MOL1         0.3769
     113    C33     22.732950   15.279558   22.612256 C.3        1 MOL1         0.1053
     114    H54     21.855541   15.897749   22.849982 H          1 MOL1         0.0783
     115    O28     23.582821   15.179469   23.761470 O.3        1 MOL1        -0.5519
     116    H55     23.589135   16.080233   24.170659 H          1 MOL1         0.3769
     117    C34     23.485884   15.940072   21.422437 C.3        1 MOL1         0.1018
     118    H56     24.475343   15.478463   21.306261 H          1 MOL1         0.0783
     119    C35     22.702626   15.797348   20.087831 C.3        1 MOL1         0.1043
     120    H57     21.821817   16.450946   20.130244 H          1 MOL1         0.0783
     121    O29     22.282772   14.423706   19.894654 O.3        1 MOL1        -0.3740
     122    C36     23.535206   16.208505   18.853340 C.3        1 MOL1         0.0138
     123    H58     23.852210   17.253681   18.965463 H          1 MOL1         0.0794
     124    H59     22.895490   16.152040   17.962591 H          1 MOL1         0.0794
     125    O30     24.676674   15.360207   18.697677 O.3        1 MOL1        -0.5486
     126    H60     24.331240   14.439601   18.695792 H          1 MOL1         0.3769
     127    C1      19.762151   19.147049   24.028603 C.2        1 MOL1         0.6021
     128    O1      18.728853   18.754304   24.538772 O.co2      1 MOL1        -0.6904
     129    O2      20.831100   19.203590   24.608335 O.co2      1 MOL1        -0.6904
     130    C2      19.716225   19.580541   22.565025 C.3        1 MOL1        -0.2102
     131    H1      20.449269   20.380514   22.415302 H          1 MOL1         0.0687
     132    H2      18.736063   20.024845   22.370136 H          1 MOL1         0.0687
     133    C3      19.979424   18.414281   21.579607 C.3        1 MOL1        -0.1974
     134    H3      20.970963   17.989003   21.774745 H          1 MOL1         0.0689
     135    H4      19.257030   17.606968   21.757789 H          1 MOL1         0.0689
     136    C4      19.889504   18.874455   20.111236 C.3        1 MOL1        -0.2987
     137    H5      20.082305   18.037405   19.429319 H          1 MOL1         0.0700
     138    H6      18.891010   19.271633   19.887840 H          1 MOL1         0.0700
     139    H7      20.629068   19.657187   19.901863 H          1 MOL1         0.0700
@<TRIPOS>BOND
    1     1     2    1
    2     1     3    1
    3     1     4    1
    4     4     5    1
    5     4     6    1
    6     6     7    1
    7     4     8    1
    8     8     9    1
    9     8    10    1
   10    10    11    1
   11     8    12    1
   12    12    13    1
   13    12    14    1
   14    14    15    1
   15     1    16    1
   16    14    16    1
   17    14    17    1
   18    17    18    1
   19    17    19    1
   20    17    20    1
   21    20    21    1
   22    22    23    1
   23    22    24    1
   24    22    25    1
   25    25    26    1
   26    25    27    1
   27    27    28    1
   28    25    29    1
   29    29    30    1
   30    29    31    1
   31    31    32    1
   32     3    33    1
   33    29    33    1
   34    33    34    1
   35    33    35    1
   36    35    36    1
   37    22    37    1
   38    35    37    1
   39    35    38    1
   40    38    39    1
   41    38    40    1
   42    38    41    1
   43    41    42    1
   44    43    44    1
   45    43    45    1
   46    43    46    1
   47    46    47    1
   48    46    48    1
   49    48    49    1
   50    46    50    1
   51    50    51    1
   52    50    52    1
   53    52    53    1
   54    24    54    1
   55    50    54    1
   56    54    55    1
   57    54    56    1
   58    56    57    1
   59    43    58    1
   60    56    58    1
   61    56    59    1
   62    59    60    1
   63    59    61    1
   64    59    62    1
   65    62    63    1
   66    64    65    1
   67    64    66    1
   68    64    67    1
   69    67    68    1
   70    67    69    1
   71    69    70    1
   72    67    71    1
   73    71    72    1
   74    71    73    1
   75    73    74    1
   76    45    75    1
   77    71    75    1
   78    75    76    1
   79    75    77    1
   80    77    78    1
   81    64    79    1
   82    77    79    1
   83    77    80    1
   84    80    81    1
   85    80    82    1
   86    80    83    1
   87    83    84    1
   88    85    86    1
   89    85    87    1
   90    85    88    1
   91    88    89    1
   92    88    90    1
   93    90    91    1
   94    88    92    1
   95    92    93    1
   96    92    94    1
   97    94    95    1
   98    66    96    1
   99    92    96    1
  100    96    97    1
  101    96    98    1
  102    98    99    1
  103    85   100    1
  104    98   100    1
  105    98   101    1
  106   101   102    1
  107   101   103    1
  108   101   104    1
  109   104   105    1
  110   106   107    1
  111    12   108    1
  112   106   108    1
  113   106   109    1
  114   109   110    1
  115   109   111    1
  116   111   112    1
  117   109   113    1
  118   113   114    1
  119   113   115    1
  120   115   116    1
  121    87   117    1
  122   113   117    1
  123   117   118    1
  124   117   119    1
  125   119   120    1
  126   106   121    1
  127   119   121    1
  128   119   122    1
  129   122   123    1
  130   122   124    1
  131   122   125    1
  132   125   126    1
  133   127   128    1
  134   127   129    2
  135   127   130    1
  136   130   131    1
  137   130   132    1
  138   130   133    1
  139   133   134    1
  140   133   135    1
  141   133   136    1
  142   136   137    1
  143   136   138    1
  144   136   139    1
@<TRIPOS>SUBSTRUCTURE
       1 MOL1            1 RESIDUE      1      MOL     
       2 MOL1          139 RESIDUE      1      MOL     
@<SCITEGIC>MOL_PROPERTY
VM2 Rank
SciTegic.value.IntegerValue
5

@<SCITEGIC>MOL_PROPERTY
Conf_Id
SciTegic.value.IntegerValue
4201

@<SCITEGIC>MOL_PROPERTY
Probability
SciTegic.value.DoubleValue
1.64

@<SCITEGIC>MOL_PROPERTY
Sum Probability
SciTegic.value.DoubleValue
10.77

@<SCITEGIC>MOL_PROPERTY
Delta G
SciTegic.value.DoubleValue
0.292

@<SCITEGIC>MOL_PROPERTY
G
SciTegic.value.DoubleValue
473.259

@<SCITEGIC>MOL_PROPERTY
E
SciTegic.value.DoubleValue
293.851

@<SCITEGIC>MOL_PROPERTY
-TS
SciTegic.value.DoubleValue
179.409

@<SCITEGIC>MOL_PROPERTY
U+W
SciTegic.value.DoubleValue
171.339

@<SCITEGIC>MOL_PROPERTY
U
SciTegic.value.DoubleValue
236.830

@<SCITEGIC>MOL_PROPERTY
W
SciTegic.value.DoubleValue
-65.490

@<SCITEGIC>MOL_PROPERTY
W(PB)
SciTegic.value.DoubleValue
-71.573

@<SCITEGIC>MOL_PROPERTY
W(SA)
SciTegic.value.DoubleValue
6.083

@<SCITEGIC>MOL_PROPERTY
Valence
SciTegic.value.DoubleValue
150.009

@<SCITEGIC>MOL_PROPERTY
Coulomb
SciTegic.value.DoubleValue
104.483

@<SCITEGIC>MOL_PROPERTY
VdW
SciTegic.value.DoubleValue
-17.662

@<SCITEGIC>MOL_PROPERTY
VdW6
SciTegic.value.DoubleValue
-174.659

@<SCITEGIC>MOL_PROPERTY
VdW12
SciTegic.value.DoubleValue
156.997

@<SCITEGIC>MOL_PROPERTY
Bond
SciTegic.value.DoubleValue
5.099

@<SCITEGIC>MOL_PROPERTY
Angle
SciTegic.value.DoubleValue
12.091

@<SCITEGIC>MOL_PROPERTY
Pdih
SciTegic.value.DoubleValue
132.819

@<SCITEGIC>MOL_PROPERTY
Idih
SciTegic.value.DoubleValue
0.000

@<SCITEGIC>MOL_PROPERTY
Tether
SciTegic.value.DoubleValue
0.000

@<TRIPOS>MOLECULE
CD_guest-6_vm2_rndm.mol2 : vm2 host+ligand conformer 6
         139         144           2
SMALL
USER_CHARGES
 
@<TRIPOS>ATOM
       1    C1      16.263535   15.195758   20.509519 C.3        1 MOL1         0.2972
       2    H1      15.206853   15.087627   20.233414 H          1 MOL1         0.0751
       3    O1      16.572167   16.560601   20.862218 O.3        1 MOL1        -0.3740
       4    C2      16.637124   14.229266   21.669505 C.3        1 MOL1         0.1003
       5    H2      16.471241   13.209490   21.299378 H          1 MOL1         0.0783
       6    O2      15.799380   14.438643   22.816531 O.3        1 MOL1        -0.5519
       7    H3      16.095106   15.288743   23.227771 H          1 MOL1         0.3769
       8    C3      18.141132   14.356327   22.032015 C.3        1 MOL1         0.1053
       9    H4      18.303954   15.345165   22.481282 H          1 MOL1         0.0783
      10    O3      18.523863   13.330192   22.956563 O.3        1 MOL1        -0.5519
      11    H5      19.491022   13.446039   23.127712 H          1 MOL1         0.3769
      12    C4      19.038958   14.242660   20.774105 C.3        1 MOL1         0.1018
      13    H6      19.090630   13.187146   20.476360 H          1 MOL1         0.0783
      14    C5      18.522146   15.084240   19.576300 C.3        1 MOL1         0.1043
      15    H7      18.703760   16.144500   19.793944 H          1 MOL1         0.0783
      16    O4      17.102815   14.852135   19.386912 O.3        1 MOL1        -0.3740
      17    C6      19.233647   14.751479   18.246652 C.3        1 MOL1         0.0138
      18    H8      20.301553   14.980899   18.347062 H          1 MOL1         0.0794
      19    H9      18.832271   15.403038   17.459057 H          1 MOL1         0.0794
      20    O5      19.054212   13.376523   17.893593 O.3        1 MOL1        -0.5486
      21    H10     18.083188   13.224594   17.872737 H          1 MOL1         0.3769
      22    C7      15.006491   20.135290   22.218612 C.3        1 MOL1         0.2972
      23    H11     14.400377   20.947713   22.638866 H          1 MOL1         0.0751
      24    O6      16.164494   20.640804   21.520325 O.3        1 MOL1        -0.3740
      25    C8      15.471809   19.171105   23.341134 C.3        1 MOL1         0.1003
      26    H12     14.571242   18.739980   23.796907 H          1 MOL1         0.0783
      27    O7      16.210303   19.881083   24.350339 O.3        1 MOL1        -0.5519
      28    H13     17.086741   19.423154   24.461364 H          1 MOL1         0.3769
      29    C9      16.301978   18.009645   22.743859 C.3        1 MOL1         0.1053
      30    H14     17.225042   18.436828   22.337614 H          1 MOL1         0.0783
      31    O8      16.613819   17.052752   23.764203 O.3        1 MOL1        -0.5519
      32    H15     17.373047   17.447912   24.269039 H          1 MOL1         0.3769
      33    C10     15.566901   17.312517   21.572716 C.3        1 MOL1         0.1018
      34    H16     14.776321   16.669003   21.979540 H          1 MOL1         0.0783
      35    C11     14.955329   18.327895   20.566753 C.3        1 MOL1         0.1043
      36    H17     15.776555   18.780290   19.994740 H          1 MOL1         0.0783
      37    O9      14.228889   19.362580   21.278269 O.3        1 MOL1        -0.3740
      38    C12     13.985249   17.680665   19.553521 C.3        1 MOL1         0.0138
      39    H18     14.543740   16.974966   18.924450 H          1 MOL1         0.0794
      40    H19     13.590618   18.464296   18.892984 H          1 MOL1         0.0794
      41    O10     12.913462   17.006616   20.219251 O.3        1 MOL1        -0.5486
      42    H20     12.477122   17.678764   20.788867 H          1 MOL1         0.3769
      43    C13     18.362080   24.144517   21.111080 C.3        1 MOL1         0.2972
      44    H21     18.699568   25.173468   20.935513 H          1 MOL1         0.0751
      45    O11     19.469798   23.231146   21.250807 O.3        1 MOL1        -0.3740
      46    C14     17.495048   24.082109   22.392294 C.3        1 MOL1         0.1003
      47    H22     16.624677   24.730665   22.227721 H          1 MOL1         0.0783
      48    O12     18.215489   24.550450   23.539737 O.3        1 MOL1        -0.5519
      49    H23     17.639471   24.318939   24.303054 H          1 MOL1         0.3769
      50    C15     16.974433   22.648435   22.644375 C.3        1 MOL1         0.1053
      51    H24     17.835145   22.010387   22.890340 H          1 MOL1         0.0783
      52    O13     16.060835   22.684191   23.747280 O.3        1 MOL1        -0.5519
      53    H25     16.024960   21.759881   24.098257 H          1 MOL1         0.3769
      54    C16     16.282596   22.070622   21.377247 C.3        1 MOL1         0.1018
      55    H26     15.298116   22.539492   21.247526 H          1 MOL1         0.0783
      56    C17     17.116756   22.303698   20.087427 C.3        1 MOL1         0.1043
      57    H27     17.990233   21.638107   20.102385 H          1 MOL1         0.0783
      58    O14     17.538327   23.689895   20.017015 O.3        1 MOL1        -0.3740
      59    C18     16.295052   22.001253   18.816565 C.3        1 MOL1         0.0138
      60    H28     15.441988   22.690891   18.764462 H          1 MOL1         0.0794
      61    H29     15.895236   20.980496   18.879391 H          1 MOL1         0.0794
      62    O15     17.115221   22.131292   17.654075 O.3        1 MOL1        -0.5486
      63    H30     17.535098   23.017340   17.713045 H          1 MOL1         0.3769
      64    C19     23.578129   22.831771   20.932727 C.3        1 MOL1         0.2972
      65    H31     24.652637   22.951998   20.744431 H          1 MOL1         0.0751
      66    O16     23.247853   21.456458   21.213966 O.3        1 MOL1        -0.3740
      67    C20     23.109586   23.751684   22.094222 C.3        1 MOL1         0.1003
      68    H32     23.307670   24.784594   21.780710 H          1 MOL1         0.0783
      69    O17     23.848053   23.491456   23.297931 O.3        1 MOL1        -0.5519
      70    H33     23.527308   22.620495   23.641382 H          1 MOL1         0.3769
      71    C21     21.580206   23.617837   22.325343 C.3        1 MOL1         0.1053
      72    H34     21.380407   22.619492   22.738591 H          1 MOL1         0.0783
      73    O18     21.130453   24.626860   23.237632 O.3        1 MOL1        -0.5519
      74    H35     20.158081   24.491951   23.357996 H          1 MOL1         0.3769
      75    C22     20.786226   23.761428   21.000341 C.3        1 MOL1         0.1018
      76    H36     20.757740   24.822547   20.719359 H          1 MOL1         0.0783
      77    C23     21.400695   22.953001   19.827334 C.3        1 MOL1         0.1043
      78    H37     21.210452   21.884069   19.990524 H          1 MOL1         0.0783
      79    O19     22.825863   23.215888   19.762675 O.3        1 MOL1        -0.3740
      80    C24     20.792536   23.349519   18.466413 C.3        1 MOL1         0.0138
      81    H38     20.979019   24.415895   18.282216 H          1 MOL1         0.0794
      82    H39     19.706131   23.198057   18.498290 H          1 MOL1         0.0794
      83    O20     21.363750   22.554794   17.425854 O.3        1 MOL1        -0.5486
      84    H40     22.336047   22.579302   17.571072 H          1 MOL1         0.3769
      85    C25     24.722412   17.823847   22.499961 C.3        1 MOL1         0.2972
      86    H41     25.299150   16.989011   22.917538 H          1 MOL1         0.0751
      87    O21     23.603879   17.359245   21.713534 O.3        1 MOL1        -0.3740
      88    C26     24.192339   18.736543   23.635443 C.3        1 MOL1         0.1003
      89    H42     25.063729   19.148346   24.160530 H          1 MOL1         0.0783
      90    O22     23.404262   17.976087   24.566690 O.3        1 MOL1        -0.5519
      91    H43     22.530189   18.439811   24.665570 H          1 MOL1         0.3769
      92    C27     23.393862   19.923001   23.040122 C.3        1 MOL1         0.1053
      93    H44     22.504355   19.518206   22.547733 H          1 MOL1         0.0783
      94    O23     22.997172   20.826377   24.079392 O.3        1 MOL1        -0.5519
      95    H45     22.189946   20.413948   24.487907 H          1 MOL1         0.3769
      96    C28     24.205138   20.675119   21.956171 C.3        1 MOL1         0.1018
      97    H46     24.963894   21.299787   22.444852 H          1 MOL1         0.0783
      98    C29     24.883050   19.708259   20.944218 C.3        1 MOL1         0.1043
      99    H47     24.101336   19.288269   20.297160 H          1 MOL1         0.0783
     100    O24     25.559216   18.635298   21.647687 O.3        1 MOL1        -0.3740
     101    C30     25.918943   20.400697   20.030948 C.3        1 MOL1         0.0138
     102    H48     25.403853   21.136837   19.399807 H          1 MOL1         0.0794
     103    H49     26.358003   19.648522   19.361934 H          1 MOL1         0.0794
     104    O25     26.942666   21.039566   20.799124 O.3        1 MOL1        -0.5486
     105    H50     27.341935   20.339483   21.362210 H          1 MOL1         0.3769
     106    C31     21.451096   13.871548   21.004191 C.3        1 MOL1         0.2972
     107    H51     21.133970   12.852330   20.750562 H          1 MOL1         0.0751
     108    O26     20.327729   14.764136   21.152075 O.3        1 MOL1        -0.3740
     109    C32     22.250922   13.865345   22.329949 C.3        1 MOL1         0.1003
     110    H52     23.129880   13.225308   22.178412 H          1 MOL1         0.0783
     111    O27     21.466392   13.339112   23.409359 O.3        1 MOL1        -0.5519
     112    H53     22.001246   13.520132   24.214835 H          1 MOL1         0.3769
     113    C33     22.752686   15.285024   22.685157 C.3        1 MOL1         0.1053
     114    H54     21.876132   15.900926   22.926623 H          1 MOL1         0.0783
     115    O28     23.611990   15.195673   23.827764 O.3        1 MOL1        -0.5519
     116    H55     23.623870   16.100203   24.228471 H          1 MOL1         0.3769
     117    C34     23.496687   15.939770   21.485435 C.3        1 MOL1         0.1018
     118    H56     24.487333   15.480478   21.369107 H          1 MOL1         0.0783
     119    C35     22.716505   15.782069   20.152260 C.3        1 MOL1         0.1043
     120    H57     21.832752   16.434376   20.176178 H          1 MOL1         0.0783
     121    O29     22.321242   14.398460   19.981464 O.3        1 MOL1        -0.3740
     122    C36     23.577869   16.172275   18.932738 C.3        1 MOL1         0.0138
     123    H58     24.459676   15.519231   18.888130 H          1 MOL1         0.0794
     124    H59     23.932503   17.204068   19.055931 H          1 MOL1         0.0794
     125    O30     22.811252   16.059465   17.732086 O.3        1 MOL1        -0.5486
     126    H60     22.448742   15.145869   17.727973 H          1 MOL1         0.3769
     127    C1      19.849185   18.745730   24.055450 C.2        1 MOL1         0.6021
     128    O1      18.747528   18.649125   24.564639 O.co2      1 MOL1        -0.6904
     129    O2      20.842684   19.131041   24.644410 O.co2      1 MOL1        -0.6904
     130    C2      19.990320   18.375459   22.580882 C.3        1 MOL1        -0.2102
     131    H1      19.275571   17.577445   22.353313 H          1 MOL1         0.0687
     132    H2      20.984447   17.946294   22.427042 H          1 MOL1         0.0687
     133    C3      19.776856   19.580677   21.630997 C.3        1 MOL1        -0.1974
     134    H3      18.786692   20.016963   21.808379 H          1 MOL1         0.0689
     135    H4      20.506312   20.368280   21.860499 H          1 MOL1         0.0689
     136    C4      19.903564   19.170538   20.150789 C.3        1 MOL1        -0.2987
     137    H5      19.148755   18.418875   19.889517 H          1 MOL1         0.0700
     138    H6      19.756594   20.036727   19.493300 H          1 MOL1         0.0700
     139    H7      20.897219   18.752480   19.943900 H          1 MOL1         0.0700
@<TRIPOS>BOND
    1     1     2    1
    2     1     3    1
    3     1     4    1
    4     4     5    1
    5     4     6    1
    6     6     7    1
    7     4     8    1
    8     8     9    1
    9     8    10    1
   10    10    11    1
   11     8    12    1
   12    12    13    1
   13    12    14    1
   14    14    15    1
   15     1    16    1
   16    14    16    1
   17    14    17    1
   18    17    18    1
   19    17    19    1
   20    17    20    1
   21    20    21    1
   22    22    23    1
   23    22    24    1
   24    22    25    1
   25    25    26    1
   26    25    27    1
   27    27    28    1
   28    25    29    1
   29    29    30    1
   30    29    31    1
   31    31    32    1
   32     3    33    1
   33    29    33    1
   34    33    34    1
   35    33    35    1
   36    35    36    1
   37    22    37    1
   38    35    37    1
   39    35    38    1
   40    38    39    1
   41    38    40    1
   42    38    41    1
   43    41    42    1
   44    43    44    1
   45    43    45    1
   46    43    46    1
   47    46    47    1
   48    46    48    1
   49    48    49    1
   50    46    50    1
   51    50    51    1
   52    50    52    1
   53    52    53    1
   54    24    54    1
   55    50    54    1
   56    54    55    1
   57    54    56    1
   58    56    57    1
   59    43    58    1
   60    56    58    1
   61    56    59    1
   62    59    60    1
   63    59    61    1
   64    59    62    1
   65    62    63    1
   66    64    65    1
   67    64    66    1
   68    64    67    1
   69    67    68    1
   70    67    69    1
   71    69    70    1
   72    67    71    1
   73    71    72    1
   74    71    73    1
   75    73    74    1
   76    45    75    1
   77    71    75    1
   78    75    76    1
   79    75    77    1
   80    77    78    1
   81    64    79    1
   82    77    79    1
   83    77    80    1
   84    80    81    1
   85    80    82    1
   86    80    83    1
   87    83    84    1
   88    85    86    1
   89    85    87    1
   90    85    88    1
   91    88    89    1
   92    88    90    1
   93    90    91    1
   94    88    92    1
   95    92    93    1
   96    92    94    1
   97    94    95    1
   98    66    96    1
   99    92    96    1
  100    96    97    1
  101    96    98    1
  102    98    99    1
  103    85   100    1
  104    98   100    1
  105    98   101    1
  106   101   102    1
  107   101   103    1
  108   101   104    1
  109   104   105    1
  110   106   107    1
  111    12   108    1
  112   106   108    1
  113   106   109    1
  114   109   110    1
  115   109   111    1
  116   111   112    1
  117   109   113    1
  118   113   114    1
  119   113   115    1
  120   115   116    1
  121    87   117    1
  122   113   117    1
  123   117   118    1
  124   117   119    1
  125   119   120    1
  126   106   121    1
  127   119   121    1
  128   119   122    1
  129   122   123    1
  130   122   124    1
  131   122   125    1
  132   125   126    1
  133   127   128    1
  134   127   129    2
  135   127   130    1
  136   130   131    1
  137   130   132    1
  138   130   133    1
  139   133   134    1
  140   133   135    1
  141   133   136    1
  142   136   137    1
  143   136   138    1
  144   136   139    1
@<TRIPOS>SUBSTRUCTURE
       1 MOL1            1 RESIDUE      1      MOL     
       2 MOL1          139 RESIDUE      1      MOL     
@<SCITEGIC>MOL_PROPERTY
VM2 Rank
SciTegic.value.IntegerValue
6

@<SCITEGIC>MOL_PROPERTY
Conf_Id
SciTegic.value.IntegerValue
22462

@<SCITEGIC>MOL_PROPERTY
Probability
SciTegic.value.DoubleValue
1.55

@<SCITEGIC>MOL_PROPERTY
Sum Probability
SciTegic.value.DoubleValue
12.32

@<SCITEGIC>MOL_PROPERTY
Delta G
SciTegic.value.DoubleValue
0.328

@<SCITEGIC>MOL_PROPERTY
G
SciTegic.value.DoubleValue
473.295

@<SCITEGIC>MOL_PROPERTY
E
SciTegic.value.DoubleValue
294.047

@<SCITEGIC>MOL_PROPERTY
-TS
SciTegic.value.DoubleValue
179.248

@<SCITEGIC>MOL_PROPERTY
U+W
SciTegic.value.DoubleValue
171.535

@<SCITEGIC>MOL_PROPERTY
U
SciTegic.value.DoubleValue
238.717

@<SCITEGIC>MOL_PROPERTY
W
SciTegic.value.DoubleValue
-67.181

@<SCITEGIC>MOL_PROPERTY
W(PB)
SciTegic.value.DoubleValue
-73.225

@<SCITEGIC>MOL_PROPERTY
W(SA)
SciTegic.value.DoubleValue
6.044

@<SCITEGIC>MOL_PROPERTY
Valence
SciTegic.value.DoubleValue
150.472

@<SCITEGIC>MOL_PROPERTY
Coulomb
SciTegic.value.DoubleValue
106.756

@<SCITEGIC>MOL_PROPERTY
VdW
SciTegic.value.DoubleValue
-18.511

@<SCITEGIC>MOL_PROPERTY
VdW6
SciTegic.value.DoubleValue
-174.653

@<SCITEGIC>MOL_PROPERTY
VdW12
SciTegic.value.DoubleValue
156.142

@<SCITEGIC>MOL_PROPERTY
Bond
SciTegic.value.DoubleValue
5.056

@<SCITEGIC>MOL_PROPERTY
Angle
SciTegic.value.DoubleValue
11.934

@<SCITEGIC>MOL_PROPERTY
Pdih
SciTegic.value.DoubleValue
133.482

@<SCITEGIC>MOL_PROPERTY
Idih
SciTegic.value.DoubleValue
0.000

@<SCITEGIC>MOL_PROPERTY
Tether
SciTegic.value.DoubleValue
0.000

@<TRIPOS>MOLECULE
CD_guest-6_vm2_rndm.mol2 : vm2 host+ligand conformer 7
         139         144           2
SMALL
USER_CHARGES
 
@<TRIPOS>ATOM
       1    C1      16.221753   15.129314   20.598073 C.3        1 MOL1         0.2972
       2    H1      15.162291   15.019081   20.333690 H          1 MOL1         0.0751
       3    O1      16.538410   16.498803   20.923582 O.3        1 MOL1        -0.3740
       4    C2      16.604766   14.182731   21.770727 C.3        1 MOL1         0.1003
       5    H2      16.429254   13.157159   21.421685 H          1 MOL1         0.0783
       6    O2      15.783006   14.417569   22.924312 O.3        1 MOL1        -0.5519
       7    H3      16.083175   15.277060   23.312215 H          1 MOL1         0.3769
       8    C3      18.113825   14.309639   22.111107 C.3        1 MOL1         0.1053
       9    H4      18.284338   15.302755   22.548269 H          1 MOL1         0.0783
      10    O3      18.507246   13.291918   23.040458 O.3        1 MOL1        -0.5519
      11    H5      19.474690   13.413985   23.205626 H          1 MOL1         0.3769
      12    C4      18.996326   14.180987   20.843285 C.3        1 MOL1         0.1018
      13    H6      19.041295   13.123157   20.552027 H          1 MOL1         0.0783
      14    C5      18.470750   15.010238   19.641778 C.3        1 MOL1         0.1043
      15    H7      18.659129   16.074176   19.835314 H          1 MOL1         0.0783
      16    O4      17.050956   14.762318   19.475464 O.3        1 MOL1        -0.3740
      17    C6      19.163782   14.628608   18.317110 C.3        1 MOL1         0.0138
      18    H8      18.958385   13.573810   18.090887 H          1 MOL1         0.0794
      19    H9      20.249430   14.742961   18.426842 H          1 MOL1         0.0794
      20    O5      18.693733   15.468308   17.261213 O.3        1 MOL1        -0.5486
      21    H10     17.712307   15.458000   17.324314 H          1 MOL1         0.3769
      22    C7      15.000078   20.107185   22.216777 C.3        1 MOL1         0.2972
      23    H11     14.400573   20.930901   22.624266 H          1 MOL1         0.0751
      24    O6      16.155690   20.592754   21.500399 O.3        1 MOL1        -0.3740
      25    C8      15.469300   19.164311   23.355675 C.3        1 MOL1         0.1003
      26    H12     14.570191   18.746961   23.826880 H          1 MOL1         0.0783
      27    O7      16.218453   19.891682   24.344470 O.3        1 MOL1        -0.5519
      28    H13     17.096163   19.435679   24.453565 H          1 MOL1         0.3769
      29    C9      16.289733   17.986890   22.776219 C.3        1 MOL1         0.1053
      30    H14     17.211556   18.401141   22.353734 H          1 MOL1         0.0783
      31    O8      16.606236   17.049875   23.813407 O.3        1 MOL1        -0.5519
      32    H15     17.371567   17.452406   24.302988 H          1 MOL1         0.3769
      33    C10     15.541857   17.268949   21.626000 C.3        1 MOL1         0.1018
      34    H16     14.752104   16.637116   22.052335 H          1 MOL1         0.0783
      35    C11     14.927312   18.265922   20.603606 C.3        1 MOL1         0.1043
      36    H17     15.746272   18.702035   20.015948 H          1 MOL1         0.0783
      37    O9      14.211674   19.319045   21.298544 O.3        1 MOL1        -0.3740
      38    C12     13.946246   17.602460   19.611678 C.3        1 MOL1         0.0138
      39    H18     14.496575   16.881618   18.992715 H          1 MOL1         0.0794
      40    H19     13.549626   18.374167   18.938418 H          1 MOL1         0.0794
      41    O10     12.877032   16.946871   20.299613 O.3        1 MOL1        -0.5486
      42    H20     12.447741   17.632533   20.858367 H          1 MOL1         0.3769
      43    C13     18.357905   24.089546   21.024275 C.3        1 MOL1         0.2972
      44    H21     18.694003   25.114599   20.824363 H          1 MOL1         0.0751
      45    O11     19.466161   23.182755   21.195876 O.3        1 MOL1        -0.3740
      46    C14     17.488815   24.053777   22.304975 C.3        1 MOL1         0.1003
      47    H22     16.619448   24.700046   22.126837 H          1 MOL1         0.0783
      48    O12     18.210716   24.543519   23.443161 O.3        1 MOL1        -0.5519
      49    H23     17.634456   24.329052   24.211128 H          1 MOL1         0.3769
      50    C15     16.966933   22.624759   22.584951 C.3        1 MOL1         0.1053
      51    H24     17.827110   21.992139   22.846611 H          1 MOL1         0.0783
      52    O13     16.050791   22.682901   23.684794 O.3        1 MOL1        -0.5519
      53    H25     16.019354   21.767213   24.058086 H          1 MOL1         0.3769
      54    C16     16.279798   22.018866   21.327603 C.3        1 MOL1         0.1018
      55    H26     15.297807   22.487758   21.180491 H          1 MOL1         0.0783
      56    C17     17.124584   22.221401   20.039980 C.3        1 MOL1         0.1043
      57    H27     18.001808   21.562240   20.080946 H          1 MOL1         0.0783
      58    O14     17.537743   23.607035   19.939904 O.3        1 MOL1        -0.3740
      59    C18     16.322652   21.883242   18.765912 C.3        1 MOL1         0.0138
      60    H28     15.449115   22.545619   18.701048 H          1 MOL1         0.0794
      61    H29     15.954927   20.850832   18.833763 H          1 MOL1         0.0794
      62    O15     17.150301   22.032374   17.610470 O.3        1 MOL1        -0.5486
      63    H30     17.526017   22.939211   17.662829 H          1 MOL1         0.3769
      64    C19     23.566299   22.764067   20.824710 C.3        1 MOL1         0.2972
      65    H31     24.639090   22.878020   20.623172 H          1 MOL1         0.0751
      66    O16     23.235371   21.392774   21.125468 O.3        1 MOL1        -0.3740
      67    C20     23.114568   23.699909   21.981303 C.3        1 MOL1         0.1003
      68    H32     23.307182   24.728793   21.651559 H          1 MOL1         0.0783
      69    O17     23.870730   23.455432   23.177285 O.3        1 MOL1        -0.5519
      70    H33     23.548641   22.593345   23.541210 H          1 MOL1         0.3769
      71    C21     21.589050   23.567910   22.236744 C.3        1 MOL1         0.1053
      72    H34     21.394387   22.569873   22.652891 H          1 MOL1         0.0783
      73    O18     21.149122   24.576357   23.154956 O.3        1 MOL1        -0.5519
      74    H35     20.174439   24.453211   23.269162 H          1 MOL1         0.3769
      75    C22     20.778586   23.710660   20.923085 C.3        1 MOL1         0.1018
      76    H36     20.747705   24.772053   20.644052 H          1 MOL1         0.0783
      77    C23     21.376035   22.894270   19.745816 C.3        1 MOL1         0.1043
      78    H37     21.185631   21.828934   19.929071 H          1 MOL1         0.0783
      79    O19     22.803708   23.134108   19.656504 O.3        1 MOL1        -0.3740
      80    C24     20.750645   23.251739   18.379774 C.3        1 MOL1         0.0138
      81    H38     19.678225   23.021612   18.408106 H          1 MOL1         0.0794
      82    H39     21.201558   22.614155   17.607736 H          1 MOL1         0.0794
      83    O20     20.952096   24.632701   18.063976 O.3        1 MOL1        -0.5486
      84    H40     21.922166   24.784698   18.111592 H          1 MOL1         0.3769
      85    C25     24.708453   17.775756   22.454663 C.3        1 MOL1         0.2972
      86    H41     25.286015   16.945047   22.879203 H          1 MOL1         0.0751
      87    O21     23.580696   17.303402   21.685537 O.3        1 MOL1        -0.3740
      88    C26     24.191239   18.706617   23.581298 C.3        1 MOL1         0.1003
      89    H42     25.068610   19.122625   24.092934 H          1 MOL1         0.0783
      90    O22     23.408076   17.963258   24.530440 O.3        1 MOL1        -0.5519
      91    H43     22.536969   18.432247   24.630358 H          1 MOL1         0.3769
      92    C27     23.392426   19.887557   22.975359 C.3        1 MOL1         0.1053
      93    H44     22.496906   19.479294   22.497217 H          1 MOL1         0.0783
      94    O23     23.008946   20.807706   24.004795 O.3        1 MOL1        -0.5519
      95    H45     22.203779   20.404888   24.426741 H          1 MOL1         0.3769
      96    C28     24.196374   20.620230   21.872553 C.3        1 MOL1         0.1018
      97    H46     24.961012   21.250124   22.345018 H          1 MOL1         0.0783
      98    C29     24.864151   19.635910   20.870808 C.3        1 MOL1         0.1043
      99    H47     24.077266   19.207015   20.236243 H          1 MOL1         0.0783
     100    O24     25.542237   18.573242   21.586611 O.3        1 MOL1        -0.3740
     101    C30     25.895452   20.310596   19.939284 C.3        1 MOL1         0.0138
     102    H48     25.377913   21.037729   19.299734 H          1 MOL1         0.0794
     103    H49     26.327818   19.546062   19.279876 H          1 MOL1         0.0794
     104    O25     26.926167   20.959197   20.689799 O.3        1 MOL1        -0.5486
     105    H50     27.327766   20.266927   21.260855 H          1 MOL1         0.3769
     106    C31     21.411268   13.807166   21.059482 C.3        1 MOL1         0.2972
     107    H51     21.090753   12.783291   20.830481 H          1 MOL1         0.0751
     108    O26     20.289503   14.701042   21.206249 O.3        1 MOL1        -0.3740
     109    C32     22.232613   13.822035   22.371949 C.3        1 MOL1         0.1003
     110    H52     23.108043   13.177862   22.217442 H          1 MOL1         0.0783
     111    O27     21.462200   13.314435   23.470342 O.3        1 MOL1        -0.5519
     112    H53     22.008106   13.508348   24.265380 H          1 MOL1         0.3769
     113    C33     22.742574   15.245346   22.698226 C.3        1 MOL1         0.1053
     114    H54     21.870159   15.866894   22.940055 H          1 MOL1         0.0783
     115    O28     23.613647   15.171879   23.833167 O.3        1 MOL1        -0.5519
     116    H55     23.630887   16.082486   24.219551 H          1 MOL1         0.3769
     117    C34     23.472755   15.879880   21.479349 C.3        1 MOL1         0.1018
     118    H56     24.462607   15.420144   21.358993 H          1 MOL1         0.0783
     119    C35     22.670271   15.700046   20.160900 C.3        1 MOL1         0.1043
     120    H57     21.786431   16.351291   20.200984 H          1 MOL1         0.0783
     121    O29     22.257553   14.318256   20.009986 O.3        1 MOL1        -0.3740
     122    C36     23.480997   16.084383   18.903389 C.3        1 MOL1         0.0138
     123    H58     23.792876   17.134026   18.983728 H          1 MOL1         0.0794
     124    H59     22.827706   16.001270   18.024503 H          1 MOL1         0.0794
     125    O30     24.625629   15.239577   18.751794 O.3        1 MOL1        -0.5486
     126    H60     24.286985   14.316943   18.779768 H          1 MOL1         0.3769
     127    C1      19.853597   18.738738   24.037927 C.2        1 MOL1         0.6021
     128    O1      18.754082   18.655763   24.553993 O.co2      1 MOL1        -0.6904
     129    O2      20.851425   19.130809   24.615066 O.co2      1 MOL1        -0.6904
     130    C2      19.987113   18.341301   22.569650 C.3        1 MOL1        -0.2102
     131    H1      19.268692   17.541916   22.358539 H          1 MOL1         0.0687
     132    H2      20.979293   17.906056   22.420878 H          1 MOL1         0.0687
     133    C3      19.774529   19.530155   21.599173 C.3        1 MOL1        -0.1974
     134    H3      18.775689   19.954972   21.754367 H          1 MOL1         0.0689
     135    H4      20.489283   20.330747   21.830262 H          1 MOL1         0.0689
     136    C4      19.933366   19.101826   20.127136 C.3        1 MOL1        -0.2987
     137    H5      19.204844   18.324091   19.866885 H          1 MOL1         0.0700
     138    H6      19.769305   19.953085   19.454929 H          1 MOL1         0.0700
     139    H7      20.941501   18.709897   19.941054 H          1 MOL1         0.0700
@<TRIPOS>BOND
    1     1     2    1
    2     1     3    1
    3     1     4    1
    4     4     5    1
    5     4     6    1
    6     6     7    1
    7     4     8    1
    8     8     9    1
    9     8    10    1
   10    10    11    1
   11     8    12    1
   12    12    13    1
   13    12    14    1
   14    14    15    1
   15     1    16    1
   16    14    16    1
   17    14    17    1
   18    17    18    1
   19    17    19    1
   20    17    20    1
   21    20    21    1
   22    22    23    1
   23    22    24    1
   24    22    25    1
   25    25    26    1
   26    25    27    1
   27    27    28    1
   28    25    29    1
   29    29    30    1
   30    29    31    1
   31    31    32    1
   32     3    33    1
   33    29    33    1
   34    33    34    1
   35    33    35    1
   36    35    36    1
   37    22    37    1
   38    35    37    1
   39    35    38    1
   40    38    39    1
   41    38    40    1
   42    38    41    1
   43    41    42    1
   44    43    44    1
   45    43    45    1
   46    43    46    1
   47    46    47    1
   48    46    48    1
   49    48    49    1
   50    46    50    1
   51    50    51    1
   52    50    52    1
   53    52    53    1
   54    24    54    1
   55    50    54    1
   56    54    55    1
   57    54    56    1
   58    56    57    1
   59    43    58    1
   60    56    58    1
   61    56    59    1
   62    59    60    1
   63    59    61    1
   64    59    62    1
   65    62    63    1
   66    64    65    1
   67    64    66    1
   68    64    67    1
   69    67    68    1
   70    67    69    1
   71    69    70    1
   72    67    71    1
   73    71    72    1
   74    71    73    1
   75    73    74    1
   76    45    75    1
   77    71    75    1
   78    75    76    1
   79    75    77    1
   80    77    78    1
   81    64    79    1
   82    77    79    1
   83    77    80    1
   84    80    81    1
   85    80    82    1
   86    80    83    1
   87    83    84    1
   88    85    86    1
   89    85    87    1
   90    85    88    1
   91    88    89    1
   92    88    90    1
   93    90    91    1
   94    88    92    1
   95    92    93    1
   96    92    94    1
   97    94    95    1
   98    66    96    1
   99    92    96    1
  100    96    97    1
  101    96    98    1
  102    98    99    1
  103    85   100    1
  104    98   100    1
  105    98   101    1
  106   101   102    1
  107   101   103    1
  108   101   104    1
  109   104   105    1
  110   106   107    1
  111    12   108    1
  112   106   108    1
  113   106   109    1
  114   109   110    1
  115   109   111    1
  116   111   112    1
  117   109   113    1
  118   113   114    1
  119   113   115    1
  120   115   116    1
  121    87   117    1
  122   113   117    1
  123   117   118    1
  124   117   119    1
  125   119   120    1
  126   106   121    1
  127   119   121    1
  128   119   122    1
  129   122   123    1
  130   122   124    1
  131   122   125    1
  132   125   126    1
  133   127   128    1
  134   127   129    2
  135   127   130    1
  136   130   131    1
  137   130   132    1
  138   130   133    1
  139   133   134    1
  140   133   135    1
  141   133   136    1
  142   136   137    1
  143   136   138    1
  144   136   139    1
@<TRIPOS>SUBSTRUCTURE
       1 MOL1            1 RESIDUE      1      MOL     
       2 MOL1          139 RESIDUE      1      MOL     
@<SCITEGIC>MOL_PROPERTY
VM2 Rank
SciTegic.value.IntegerValue
7

@<SCITEGIC>MOL_PROPERTY
Conf_Id
SciTegic.value.IntegerValue
23153

@<SCITEGIC>MOL_PROPERTY
Probability
SciTegic.value.DoubleValue
1.33

@<SCITEGIC>MOL_PROPERTY
Sum Probability
SciTegic.value.DoubleValue
13.65

@<SCITEGIC>MOL_PROPERTY
Delta G
SciTegic.value.DoubleValue
0.418

@<SCITEGIC>MOL_PROPERTY
G
SciTegic.value.DoubleValue
473.385

@<SCITEGIC>MOL_PROPERTY
E
SciTegic.value.DoubleValue
294.003

@<SCITEGIC>MOL_PROPERTY
-TS
SciTegic.value.DoubleValue
179.382

@<SCITEGIC>MOL_PROPERTY
U+W
SciTegic.value.DoubleValue
171.491

@<SCITEGIC>MOL_PROPERTY
U
SciTegic.value.DoubleValue
237.221

@<SCITEGIC>MOL_PROPERTY
W
SciTegic.value.DoubleValue
-65.730

@<SCITEGIC>MOL_PROPERTY
W(PB)
SciTegic.value.DoubleValue
-71.788

@<SCITEGIC>MOL_PROPERTY
W(SA)
SciTegic.value.DoubleValue
6.059

@<SCITEGIC>MOL_PROPERTY
Valence
SciTegic.value.DoubleValue
150.184

@<SCITEGIC>MOL_PROPERTY
Coulomb
SciTegic.value.DoubleValue
105.156

@<SCITEGIC>MOL_PROPERTY
VdW
SciTegic.value.DoubleValue
-18.119

@<SCITEGIC>MOL_PROPERTY
VdW6
SciTegic.value.DoubleValue
-174.742

@<SCITEGIC>MOL_PROPERTY
VdW12
SciTegic.value.DoubleValue
156.623

@<SCITEGIC>MOL_PROPERTY
Bond
SciTegic.value.DoubleValue
5.077

@<SCITEGIC>MOL_PROPERTY
Angle
SciTegic.value.DoubleValue
12.029

@<SCITEGIC>MOL_PROPERTY
Pdih
SciTegic.value.DoubleValue
133.077

@<SCITEGIC>MOL_PROPERTY
Idih
SciTegic.value.DoubleValue
0.000

@<SCITEGIC>MOL_PROPERTY
Tether
SciTegic.value.DoubleValue
0.000

@<TRIPOS>MOLECULE
CD_guest-6_vm2_rndm.mol2 : vm2 host+ligand conformer 8
         139         144           2
SMALL
USER_CHARGES
 
@<TRIPOS>ATOM
       1    C1      16.254238   15.163592   20.532129 C.3        1 MOL1         0.2972
       2    H1      15.194120   15.051378   20.271182 H          1 MOL1         0.0751
       3    O1      16.567564   16.531483   20.865204 O.3        1 MOL1        -0.3740
       4    C2      16.642549   14.217878   21.702711 C.3        1 MOL1         0.1003
       5    H2      16.474870   13.191575   21.351940 H          1 MOL1         0.0783
       6    O2      15.816356   14.446473   22.854687 O.3        1 MOL1        -0.5519
       7    H3      16.109000   15.308067   23.243742 H          1 MOL1         0.3769
       8    C3      18.150232   14.355289   22.045879 C.3        1 MOL1         0.1053
       9    H4      18.316052   15.350672   22.480558 H          1 MOL1         0.0783
      10    O3      18.540800   13.340854   22.979527 O.3        1 MOL1        -0.5519
      11    H5      19.510171   13.455643   23.138398 H          1 MOL1         0.3769
      12    C4      19.035047   14.225808   20.779200 C.3        1 MOL1         0.1018
      13    H6      19.090650   13.165431   20.500039 H          1 MOL1         0.0783
      14    C5      18.500198   15.040496   19.570693 C.3        1 MOL1         0.1043
      15    H7      18.681660   16.106336   19.761439 H          1 MOL1         0.0783
      16    O4      17.079107   14.802825   19.404452 O.3        1 MOL1        -0.3740
      17    C6      19.195483   14.675468   18.240446 C.3        1 MOL1         0.0138
      18    H8      20.269307   14.887184   18.326080 H          1 MOL1         0.0794
      19    H9      18.796550   15.320263   17.446112 H          1 MOL1         0.0794
      20    O5      18.988020   13.298233   17.912238 O.3        1 MOL1        -0.5486
      21    H10     18.014378   13.161560   17.914887 H          1 MOL1         0.3769
      22    C7      15.009082   20.136300   22.123796 C.3        1 MOL1         0.2972
      23    H11     14.405985   20.966376   22.512413 H          1 MOL1         0.0751
      24    O6      16.192553   20.607859   21.443562 O.3        1 MOL1        -0.3740
      25    C8      15.442433   19.195040   23.276149 C.3        1 MOL1         0.1003
      26    H12     14.530411   18.775423   23.719705 H          1 MOL1         0.0783
      27    O7      16.155400   19.930861   24.284821 O.3        1 MOL1        -0.5519
      28    H13     17.020284   19.464617   24.437540 H          1 MOL1         0.3769
      29    C9      16.282644   18.019221   22.716853 C.3        1 MOL1         0.1053
      30    H14     17.209637   18.431187   22.306584 H          1 MOL1         0.0783
      31    O8      16.593828   17.089832   23.762033 O.3        1 MOL1        -0.5519
      32    H15     17.366930   17.489610   24.242775 H          1 MOL1         0.3769
      33    C10     15.557994   17.297141   21.553406 C.3        1 MOL1         0.1018
      34    H16     14.763191   16.662527   21.966176 H          1 MOL1         0.0783
      35    C11     14.960169   18.290367   20.516753 C.3        1 MOL1         0.1043
      36    H17     15.788664   18.722861   19.940413 H          1 MOL1         0.0783
      37    O9      14.236376   19.348852   21.192537 O.3        1 MOL1        -0.3740
      38    C12     13.993804   17.624506   19.512109 C.3        1 MOL1         0.0138
      39    H18     14.552811   16.901597   18.903408 H          1 MOL1         0.0794
      40    H19     13.607889   18.394804   18.830941 H          1 MOL1         0.0794
      41    O10     12.913964   16.971612   20.185919 O.3        1 MOL1        -0.5486
      42    H20     12.474705   17.660187   20.733230 H          1 MOL1         0.3769
      43    C13     18.399946   24.114078   21.002820 C.3        1 MOL1         0.2972
      44    H21     18.727630   25.140027   20.793598 H          1 MOL1         0.0751
      45    O11     19.514760   23.236200   21.260313 O.3        1 MOL1        -0.3740
      46    C14     17.466515   24.096256   22.238807 C.3        1 MOL1         0.1003
      47    H22     16.602837   24.732819   22.006420 H          1 MOL1         0.0783
      48    O12     18.133749   24.611790   23.399527 O.3        1 MOL1        -0.5519
      49    H23     17.521534   24.415073   24.143961 H          1 MOL1         0.3769
      50    C15     16.941971   22.668728   22.523514 C.3        1 MOL1         0.1053
      51    H24     17.796345   22.053620   22.835893 H          1 MOL1         0.0783
      52    O13     15.980777   22.733181   23.583888 O.3        1 MOL1        -0.5519
      53    H25     15.940813   21.821894   23.967026 H          1 MOL1         0.3769
      54    C16     16.320358   22.030684   21.247597 C.3        1 MOL1         0.1018
      55    H26     15.345971   22.491340   21.037843 H          1 MOL1         0.0783
      56    C17     17.239291   22.205408   20.007664 C.3        1 MOL1         0.1043
      57    H27     18.119978   21.561442   20.134637 H          1 MOL1         0.0783
      58    O14     17.655262   23.587646   19.885643 O.3        1 MOL1        -0.3740
      59    C18     16.549596   21.808304   18.683540 C.3        1 MOL1         0.0138
      60    H28     16.238533   20.757020   18.741037 H          1 MOL1         0.0794
      61    H29     17.279744   21.891487   17.867568 H          1 MOL1         0.0794
      62    O15     15.418311   22.644169   18.422455 O.3        1 MOL1        -0.5486
      63    H30     15.747382   23.569195   18.475906 H          1 MOL1         0.3769
      64    C19     23.619945   22.859219   20.967415 C.3        1 MOL1         0.2972
      65    H31     24.695978   22.987760   20.797675 H          1 MOL1         0.0751
      66    O16     23.291029   21.473337   21.205868 O.3        1 MOL1        -0.3740
      67    C20     23.135620   23.756609   22.140233 C.3        1 MOL1         0.1003
      68    H32     23.318417   24.796577   21.840880 H          1 MOL1         0.0783
      69    O17     23.878995   23.493301   23.339536 O.3        1 MOL1        -0.5519
      70    H33     23.546660   22.629910   23.690722 H          1 MOL1         0.3769
      71    C21     21.607446   23.595948   22.358906 C.3        1 MOL1         0.1053
      72    H34     21.416098   22.579446   22.727567 H          1 MOL1         0.0783
      73    O18     21.129254   24.558389   23.307220 O.3        1 MOL1        -0.5519
      74    H35     20.147796   24.447648   23.356253 H          1 MOL1         0.3769
      75    C22     20.826930   23.786310   21.033777 C.3        1 MOL1         0.1018
      76    H36     20.791366   24.859676   20.805454 H          1 MOL1         0.0783
      77    C23     21.458638   23.030141   19.833006 C.3        1 MOL1         0.1043
      78    H37     21.262363   21.957044   19.956037 H          1 MOL1         0.0783
      79    O19     22.888561   23.270481   19.794284 O.3        1 MOL1        -0.3740
      80    C24     20.878606   23.462619   18.468011 C.3        1 MOL1         0.0138
      81    H38     19.804838   23.237318   18.444553 H          1 MOL1         0.0794
      82    H39     21.354694   22.866037   17.678477 H          1 MOL1         0.0794
      83    O20     21.096335   24.857453   18.234330 O.3        1 MOL1        -0.5486
      84    H40     22.065178   25.000411   18.320830 H          1 MOL1         0.3769
      85    C25     24.698602   17.821968   22.542515 C.3        1 MOL1         0.2972
      86    H41     25.262804   16.986772   22.976156 H          1 MOL1         0.0751
      87    O21     23.595082   17.359504   21.735852 O.3        1 MOL1        -0.3740
      88    C26     24.149727   18.743082   23.661255 C.3        1 MOL1         0.1003
      89    H42     25.012410   19.142351   24.209839 H          1 MOL1         0.0783
      90    O22     23.322982   17.997506   24.571850 O.3        1 MOL1        -0.5519
      91    H43     22.442247   18.457414   24.625027 H          1 MOL1         0.3769
      92    C27     23.385048   19.939911   23.044384 C.3        1 MOL1         0.1053
      93    H44     22.493273   19.543379   22.546669 H          1 MOL1         0.0783
      94    O23     22.999634   20.855400   24.076462 O.3        1 MOL1        -0.5519
      95    H45     22.198479   20.447388   24.500051 H          1 MOL1         0.3769
      96    C28     24.222824   20.674009   21.965389 C.3        1 MOL1         0.1018
      97    H46     24.991082   21.284719   22.457399 H          1 MOL1         0.0783
      98    C29     24.896264   19.688423   20.970228 C.3        1 MOL1         0.1043
      99    H47     24.121945   19.273211   20.311152 H          1 MOL1         0.0783
     100    O24     25.555673   18.626528   21.705494 O.3        1 MOL1        -0.3740
     101    C30     25.964433   20.367536   20.088772 C.3        1 MOL1         0.0138
     102    H48     26.770348   20.753544   20.727317 H          1 MOL1         0.0794
     103    H49     25.514840   21.218083   19.560239 H          1 MOL1         0.0794
     104    O25     26.478941   19.429428   19.141728 O.3        1 MOL1        -0.5486
     105    H50     26.691601   18.615500   19.652614 H          1 MOL1         0.3769
     106    C31     21.452316   13.873329   20.991705 C.3        1 MOL1         0.2972
     107    H51     21.139088   12.853761   20.734764 H          1 MOL1         0.0751
     108    O26     20.326157   14.764324   21.125705 O.3        1 MOL1        -0.3740
     109    C32     22.241152   13.868806   22.324641 C.3        1 MOL1         0.1003
     110    H52     23.128613   13.239638   22.177132 H          1 MOL1         0.0783
     111    O27     21.457213   13.329109   23.397103 O.3        1 MOL1        -0.5519
     112    H53     21.980843   13.525419   24.206671 H          1 MOL1         0.3769
     113    C33     22.724665   15.291754   22.689348 C.3        1 MOL1         0.1053
     114    H54     21.840124   15.909046   22.901591 H          1 MOL1         0.0783
     115    O28     23.552037   15.210916   23.856402 O.3        1 MOL1        -0.5519
     116    H55     23.549681   16.118168   24.251133 H          1 MOL1         0.3769
     117    C34     23.498401   15.939712   21.506477 C.3        1 MOL1         0.1018
     118    H56     24.492860   15.482624   21.418495 H          1 MOL1         0.0783
     119    C35     22.747024   15.776105   20.156201 C.3        1 MOL1         0.1043
     120    H57     21.866537   16.431630   20.166705 H          1 MOL1         0.0783
     121    O29     22.329136   14.399965   19.974148 O.3        1 MOL1        -0.3740
     122    C36     23.613170   16.166408   18.937695 C.3        1 MOL1         0.0138
     123    H58     23.933408   17.211632   19.042852 H          1 MOL1         0.0794
     124    H59     22.996641   16.100346   18.031441 H          1 MOL1         0.0794
     125    O30     24.753785   15.310039   18.824191 O.3        1 MOL1        -0.5486
     126    H60     24.403399   14.391404   18.825814 H          1 MOL1         0.3769
     127    C1      19.734152   19.169084   24.025799 C.2        1 MOL1         0.6021
     128    O1      18.701222   18.764154   24.527078 O.co2      1 MOL1        -0.6904
     129    O2      20.793722   19.252400   24.619153 O.co2      1 MOL1        -0.6904
     130    C2      19.700321   19.588683   22.557835 C.3        1 MOL1        -0.2102
     131    H1      20.427376   20.394293   22.409620 H          1 MOL1         0.0687
     132    H2      18.718223   20.021519   22.348437 H          1 MOL1         0.0687
     133    C3      19.985847   18.417569   21.584502 C.3        1 MOL1        -0.1974
     134    H3      20.976634   17.999252   21.797822 H          1 MOL1         0.0689
     135    H4      19.265348   17.607128   21.756414 H          1 MOL1         0.0689
     136    C4      19.917128   18.868650   20.112120 C.3        1 MOL1        -0.2987
     137    H5      20.648130   19.662304   19.913507 H          1 MOL1         0.0700
     138    H6      20.136226   18.030650   19.439201 H          1 MOL1         0.0700
     139    H7      18.916613   19.247799   19.867791 H          1 MOL1         0.0700
@<TRIPOS>BOND
    1     1     2    1
    2     1     3    1
    3     1     4    1
    4     4     5    1
    5     4     6    1
    6     6     7    1
    7     4     8    1
    8     8     9    1
    9     8    10    1
   10    10    11    1
   11     8    12    1
   12    12    13    1
   13    12    14    1
   14    14    15    1
   15     1    16    1
   16    14    16    1
   17    14    17    1
   18    17    18    1
   19    17    19    1
   20    17    20    1
   21    20    21    1
   22    22    23    1
   23    22    24    1
   24    22    25    1
   25    25    26    1
   26    25    27    1
   27    27    28    1
   28    25    29    1
   29    29    30    1
   30    29    31    1
   31    31    32    1
   32     3    33    1
   33    29    33    1
   34    33    34    1
   35    33    35    1
   36    35    36    1
   37    22    37    1
   38    35    37    1
   39    35    38    1
   40    38    39    1
   41    38    40    1
   42    38    41    1
   43    41    42    1
   44    43    44    1
   45    43    45    1
   46    43    46    1
   47    46    47    1
   48    46    48    1
   49    48    49    1
   50    46    50    1
   51    50    51    1
   52    50    52    1
   53    52    53    1
   54    24    54    1
   55    50    54    1
   56    54    55    1
   57    54    56    1
   58    56    57    1
   59    43    58    1
   60    56    58    1
   61    56    59    1
   62    59    60    1
   63    59    61    1
   64    59    62    1
   65    62    63    1
   66    64    65    1
   67    64    66    1
   68    64    67    1
   69    67    68    1
   70    67    69    1
   71    69    70    1
   72    67    71    1
   73    71    72    1
   74    71    73    1
   75    73    74    1
   76    45    75    1
   77    71    75    1
   78    75    76    1
   79    75    77    1
   80    77    78    1
   81    64    79    1
   82    77    79    1
   83    77    80    1
   84    80    81    1
   85    80    82    1
   86    80    83    1
   87    83    84    1
   88    85    86    1
   89    85    87    1
   90    85    88    1
   91    88    89    1
   92    88    90    1
   93    90    91    1
   94    88    92    1
   95    92    93    1
   96    92    94    1
   97    94    95    1
   98    66    96    1
   99    92    96    1
  100    96    97    1
  101    96    98    1
  102    98    99    1
  103    85   100    1
  104    98   100    1
  105    98   101    1
  106   101   102    1
  107   101   103    1
  108   101   104    1
  109   104   105    1
  110   106   107    1
  111    12   108    1
  112   106   108    1
  113   106   109    1
  114   109   110    1
  115   109   111    1
  116   111   112    1
  117   109   113    1
  118   113   114    1
  119   113   115    1
  120   115   116    1
  121    87   117    1
  122   113   117    1
  123   117   118    1
  124   117   119    1
  125   119   120    1
  126   106   121    1
  127   119   121    1
  128   119   122    1
  129   122   123    1
  130   122   124    1
  131   122   125    1
  132   125   126    1
  133   127   128    1
  134   127   129    2
  135   127   130    1
  136   130   131    1
  137   130   132    1
  138   130   133    1
  139   133   134    1
  140   133   135    1
  141   133   136    1
  142   136   137    1
  143   136   138    1
  144   136   139    1
@<TRIPOS>SUBSTRUCTURE
       1 MOL1            1 RESIDUE      1      MOL     
       2 MOL1          139 RESIDUE      1      MOL     
@<SCITEGIC>MOL_PROPERTY
VM2 Rank
SciTegic.value.IntegerValue
8

@<SCITEGIC>MOL_PROPERTY
Conf_Id
SciTegic.value.IntegerValue
15569

@<SCITEGIC>MOL_PROPERTY
Probability
SciTegic.value.DoubleValue
1.25

@<SCITEGIC>MOL_PROPERTY
Sum Probability
SciTegic.value.DoubleValue
14.90

@<SCITEGIC>MOL_PROPERTY
Delta G
SciTegic.value.DoubleValue
0.457

@<SCITEGIC>MOL_PROPERTY
G
SciTegic.value.DoubleValue
473.424

@<SCITEGIC>MOL_PROPERTY
E
SciTegic.value.DoubleValue
294.000

@<SCITEGIC>MOL_PROPERTY
-TS
SciTegic.value.DoubleValue
179.424

@<SCITEGIC>MOL_PROPERTY
U+W
SciTegic.value.DoubleValue
171.489

@<SCITEGIC>MOL_PROPERTY
U
SciTegic.value.DoubleValue
236.406

@<SCITEGIC>MOL_PROPERTY
W
SciTegic.value.DoubleValue
-64.917

@<SCITEGIC>MOL_PROPERTY
W(PB)
SciTegic.value.DoubleValue
-71.009

@<SCITEGIC>MOL_PROPERTY
W(SA)
SciTegic.value.DoubleValue
6.092

@<SCITEGIC>MOL_PROPERTY
Valence
SciTegic.value.DoubleValue
150.299

@<SCITEGIC>MOL_PROPERTY
Coulomb
SciTegic.value.DoubleValue
103.799

@<SCITEGIC>MOL_PROPERTY
VdW
SciTegic.value.DoubleValue
-17.691

@<SCITEGIC>MOL_PROPERTY
VdW6
SciTegic.value.DoubleValue
-174.685

@<SCITEGIC>MOL_PROPERTY
VdW12
SciTegic.value.DoubleValue
156.994

@<SCITEGIC>MOL_PROPERTY
Bond
SciTegic.value.DoubleValue
5.089

@<SCITEGIC>MOL_PROPERTY
Angle
SciTegic.value.DoubleValue
12.139

@<SCITEGIC>MOL_PROPERTY
Pdih
SciTegic.value.DoubleValue
133.071

@<SCITEGIC>MOL_PROPERTY
Idih
SciTegic.value.DoubleValue
0.000

@<SCITEGIC>MOL_PROPERTY
Tether
SciTegic.value.DoubleValue
0.000

