VeraChem MOL file


 20 19  0  0  0  0  0  0  0  0999 V2000     
   19.7358   18.9390   25.6479 N   0  3  0  0  0  0  0  0  0  0  0  0
   19.5332   17.9360   25.7059 H   0  0  0  0  0  0  0  0  0  0  0  0
   20.2632   19.1850   26.4922 H   0  0  0  0  0  0  0  0  0  0  0  0
   18.8387   19.4313   25.7041 H   0  0  0  0  0  0  0  0  0  0  0  0
   20.4972   19.2912   24.3858 C   0  0  0  0  0  0  0  0  0  0  0  0
   21.4511   18.7572   24.4070 H   0  0  0  0  0  0  0  0  0  0  0  0
   20.7044   20.3647   24.4051 H   0  0  0  0  0  0  0  0  0  0  0  0
   19.7326   18.9345   23.0985 C   0  0  0  0  0  0  0  0  0  0  0  0
   19.5126   17.8585   23.0910 H   0  0  0  0  0  0  0  0  0  0  0  0
   18.7686   19.4605   23.0890 H   0  0  0  0  0  0  0  0  0  0  0  0
   20.5421   19.3090   21.8371 C   0  0  0  0  0  0  0  0  0  0  0  0
   21.5080   18.7850   21.8525 H   0  0  0  0  0  0  0  0  0  0  0  0
   20.7648   20.3851   21.8505 H   0  0  0  0  0  0  0  0  0  0  0  0
   19.7839   18.9552   20.5381 C   0  0  0  0  0  0  0  0  0  0  0  0
   19.5610   17.8790   20.5196 H   0  0  0  0  0  0  0  0  0  0  0  0
   18.8178   19.4789   20.5177 H   0  0  0  0  0  0  0  0  0  0  0  0
   20.5964   19.3311   19.2806 C   0  0  0  0  0  0  0  0  0  0  0  0
   20.0421   19.0724   18.3691 H   0  0  0  0  0  0  0  0  0  0  0  0
   20.8056   20.4085   19.2529 H   0  0  0  0  0  0  0  0  0  0  0  0
   21.5547   18.7961   19.2549 H   0  0  0  0  0  0  0  0  0  0  0  0
  1  2  1  0  0  0  0
  1  3  1  0  0  0  0
  1  4  1  0  0  0  0
  1  5  1  0  0  0  0
  5  6  1  0  0  0  0
  5  7  1  0  0  0  0
  5  8  1  0  0  0  0
  8  9  1  0  0  0  0
  8 10  1  0  0  0  0
  8 11  1  0  0  0  0
 11 12  1  0  0  0  0
 11 13  1  0  0  0  0
 11 14  1  0  0  0  0
 14 15  1  0  0  0  0
 14 16  1  0  0  0  0
 14 17  1  0  0  0  0
 17 18  1  0  0  0  0
 17 19  1  0  0  0  0
 17 20  1  0  0  0  0
M  END
> <VM2 Rank>
1

> <Conf_Id>
167

> <Probability>
18.27

> <Sum Probability>
18.27

> <Delta G>
0.000

> <G>
27.007

> <E>
4.319

> <-TS>
22.689

> <U+W>
-11.778

> <U>
45.772

> <W>
-57.550

> <W(PB)>
-59.511

> <W(SA)>
1.961

> <Valence>
1.299

> <Coulomb>
44.177

> <VdW>
0.297

> <VdW6>
-3.490

> <VdW12>
3.786

> <Bond>
0.096

> <Angle>
0.381

> <Pdih>
0.822

> <Idih>
0.000

> <Tether>
0.000

$$$$
VeraChem MOL file


 20 19  0  0  0  0  0  0  0  0999 V2000     
   20.6067   18.3918   25.0324 N   0  3  0  0  0  0  0  0  0  0  0  0
   20.9676   18.5357   25.9814 H   0  0  0  0  0  0  0  0  0  0  0  0
   19.9885   17.5754   25.0696 H   0  0  0  0  0  0  0  0  0  0  0  0
   21.4064   18.1396   24.4443 H   0  0  0  0  0  0  0  0  0  0  0  0
   19.8881   19.6214   24.5113 C   0  0  0  0  0  0  0  0  0  0  0  0
   20.5937   20.4565   24.5202 H   0  0  0  0  0  0  0  0  0  0  0  0
   19.0787   19.8528   25.2092 H   0  0  0  0  0  0  0  0  0  0  0  0
   19.3063   19.4492   23.0944 C   0  0  0  0  0  0  0  0  0  0  0  0
   18.6021   18.6065   23.0873 H   0  0  0  0  0  0  0  0  0  0  0  0
   18.7231   20.3464   22.8474 H   0  0  0  0  0  0  0  0  0  0  0  0
   20.3993   19.2368   22.0200 C   0  0  0  0  0  0  0  0  0  0  0  0
   20.9646   18.3208   22.2377 H   0  0  0  0  0  0  0  0  0  0  0  0
   21.1155   20.0694   22.0565 H   0  0  0  0  0  0  0  0  0  0  0  0
   19.7980   19.1369   20.6002 C   0  0  0  0  0  0  0  0  0  0  0  0
   19.0799   18.3058   20.5588 H   0  0  0  0  0  0  0  0  0  0  0  0
   19.2357   20.0527   20.3695 H   0  0  0  0  0  0  0  0  0  0  0  0
   20.8897   18.9239   19.5298 C   0  0  0  0  0  0  0  0  0  0  0  0
   21.6048   19.7568   19.5236 H   0  0  0  0  0  0  0  0  0  0  0  0
   21.4472   17.9961   19.7132 H   0  0  0  0  0  0  0  0  0  0  0  0
   20.4435   18.8560   18.5291 H   0  0  0  0  0  0  0  0  0  0  0  0
  1  2  1  0  0  0  0
  1  3  1  0  0  0  0
  1  4  1  0  0  0  0
  1  5  1  0  0  0  0
  5  6  1  0  0  0  0
  5  7  1  0  0  0  0
  5  8  1  0  0  0  0
  8  9  1  0  0  0  0
  8 10  1  0  0  0  0
  8 11  1  0  0  0  0
 11 12  1  0  0  0  0
 11 13  1  0  0  0  0
 11 14  1  0  0  0  0
 14 15  1  0  0  0  0
 14 16  1  0  0  0  0
 14 17  1  0  0  0  0
 17 18  1  0  0  0  0
 17 19  1  0  0  0  0
 17 20  1  0  0  0  0
M  END
> <VM2 Rank>
2

> <Conf_Id>
143

> <Probability>
11.04

> <Sum Probability>
29.31

> <Delta G>
0.301

> <G>
27.308

> <E>
4.519

> <-TS>
22.789

> <U+W>
-11.578

> <U>
46.423

> <W>
-58.001

> <W(PB)>
-59.940

> <W(SA)>
1.939

> <Valence>
1.410

> <Coulomb>
44.613

> <VdW>
0.400

> <VdW6>
-4.001

> <VdW12>
4.401

> <Bond>
0.117

> <Angle>
0.430

> <Pdih>
0.863

> <Idih>
0.000

> <Tether>
0.000

$$$$
VeraChem MOL file


 20 19  0  0  0  0  0  0  0  0999 V2000     
   19.8800   19.9563   25.0305 N   0  3  0  0  0  0  0  0  0  0  0  0
   20.2037   20.7289   24.4412 H   0  0  0  0  0  0  0  0  0  0  0  0
   18.8573   20.0106   25.0666 H   0  0  0  0  0  0  0  0  0  0  0  0
   20.2218   20.1411   25.9795 H   0  0  0  0  0  0  0  0  0  0  0  0
   20.3565   18.6130   24.5125 C   0  0  0  0  0  0  0  0  0  0  0  0
   20.0106   17.8466   25.2116 H   0  0  0  0  0  0  0  0  0  0  0  0
   21.4498   18.6135   24.5225 H   0  0  0  0  0  0  0  0  0  0  0  0
   19.8510   18.2767   23.0958 C   0  0  0  0  0  0  0  0  0  0  0  0
   20.1606   17.2519   22.8511 H   0  0  0  0  0  0  0  0  0  0  0  0
   18.7529   18.2821   23.0876 H   0  0  0  0  0  0  0  0  0  0  0  0
   20.3947   19.2468   22.0200 C   0  0  0  0  0  0  0  0  0  0  0  0
   21.4929   19.2571   22.0575 H   0  0  0  0  0  0  0  0  0  0  0  0
   20.0591   20.2701   22.2353 H   0  0  0  0  0  0  0  0  0  0  0  0
   19.9318   18.8489   20.6005 C   0  0  0  0  0  0  0  0  0  0  0  0
   20.2691   17.8280   20.3722 H   0  0  0  0  0  0  0  0  0  0  0  0
   18.8335   18.8362   20.5582 H   0  0  0  0  0  0  0  0  0  0  0  0
   20.4742   19.8184   19.5286 C   0  0  0  0  0  0  0  0  0  0  0  0
   21.5719   19.8275   19.5235 H   0  0  0  0  0  0  0  0  0  0  0  0
   20.1354   19.5191   18.5283 H   0  0  0  0  0  0  0  0  0  0  0  0
   20.1247   20.8432   19.7097 H   0  0  0  0  0  0  0  0  0  0  0  0
  1  2  1  0  0  0  0
  1  3  1  0  0  0  0
  1  4  1  0  0  0  0
  1  5  1  0  0  0  0
  5  6  1  0  0  0  0
  5  7  1  0  0  0  0
  5  8  1  0  0  0  0
  8  9  1  0  0  0  0
  8 10  1  0  0  0  0
  8 11  1  0  0  0  0
 11 12  1  0  0  0  0
 11 13  1  0  0  0  0
 11 14  1  0  0  0  0
 14 15  1  0  0  0  0
 14 16  1  0  0  0  0
 14 17  1  0  0  0  0
 17 18  1  0  0  0  0
 17 19  1  0  0  0  0
 17 20  1  0  0  0  0
M  END
> <VM2 Rank>
3

> <Conf_Id>
94

> <Probability>
10.33

> <Sum Probability>
39.64

> <Delta G>
0.340

> <G>
27.347

> <E>
4.558

> <-TS>
22.789

> <U+W>
-11.538

> <U>
46.423

> <W>
-57.961

> <W(PB)>
-59.894

> <W(SA)>
1.932

> <Valence>
1.410

> <Coulomb>
44.613

> <VdW>
0.400

> <VdW6>
-4.001

> <VdW12>
4.401

> <Bond>
0.117

> <Angle>
0.430

> <Pdih>
0.863

> <Idih>
0.000

> <Tether>
0.000

$$$$
VeraChem MOL file


 20 19  0  0  0  0  0  0  0  0999 V2000     
   19.6444   19.3205   25.4425 N   0  3  0  0  0  0  0  0  0  0  0  0
   18.6980   18.9276   25.4586 H   0  0  0  0  0  0  0  0  0  0  0  0
   20.2497   18.6686   25.9515 H   0  0  0  0  0  0  0  0  0  0  0  0
   19.6157   20.1876   25.9892 H   0  0  0  0  0  0  0  0  0  0  0  0
   20.1338   19.5617   24.0288 C   0  0  0  0  0  0  0  0  0  0  0  0
   21.1311   20.0059   24.0879 H   0  0  0  0  0  0  0  0  0  0  0  0
   19.4621   20.2859   23.5606 H   0  0  0  0  0  0  0  0  0  0  0  0
   20.1886   18.2769   23.1805 C   0  0  0  0  0  0  0  0  0  0  0  0
   20.8314   17.5422   23.6835 H   0  0  0  0  0  0  0  0  0  0  0  0
   19.1872   17.8300   23.1218 H   0  0  0  0  0  0  0  0  0  0  0  0
   20.7318   18.5249   21.7532 C   0  0  0  0  0  0  0  0  0  0  0  0
   20.8308   17.5579   21.2407 H   0  0  0  0  0  0  0  0  0  0  0  0
   21.7441   18.9482   21.8144 H   0  0  0  0  0  0  0  0  0  0  0  0
   19.8273   19.4556   20.9108 C   0  0  0  0  0  0  0  0  0  0  0  0
   18.8071   19.0483   20.8750 H   0  0  0  0  0  0  0  0  0  0  0  0
   19.7574   20.4452   21.3824 H   0  0  0  0  0  0  0  0  0  0  0  0
   20.3622   19.6204   19.4722 C   0  0  0  0  0  0  0  0  0  0  0  0
   19.7097   20.2836   18.8895 H   0  0  0  0  0  0  0  0  0  0  0  0
   21.3700   20.0557   19.4731 H   0  0  0  0  0  0  0  0  0  0  0  0
   20.4079   18.6536   18.9542 H   0  0  0  0  0  0  0  0  0  0  0  0
  1  2  1  0  0  0  0
  1  3  1  0  0  0  0
  1  4  1  0  0  0  0
  1  5  1  0  0  0  0
  5  6  1  0  0  0  0
  5  7  1  0  0  0  0
  5  8  1  0  0  0  0
  8  9  1  0  0  0  0
  8 10  1  0  0  0  0
  8 11  1  0  0  0  0
 11 12  1  0  0  0  0
 11 13  1  0  0  0  0
 11 14  1  0  0  0  0
 14 15  1  0  0  0  0
 14 16  1  0  0  0  0
 14 17  1  0  0  0  0
 17 18  1  0  0  0  0
 17 19  1  0  0  0  0
 17 20  1  0  0  0  0
M  END
> <VM2 Rank>
4

> <Conf_Id>
310

> <Probability>
8.08

> <Sum Probability>
47.72

> <Delta G>
0.486

> <G>
27.494

> <E>
4.710

> <-TS>
22.784

> <U+W>
-11.387

> <U>
46.508

> <W>
-57.895

> <W(PB)>
-59.824

> <W(SA)>
1.928

> <Valence>
1.610

> <Coulomb>
44.536

> <VdW>
0.362

> <VdW6>
-4.056

> <VdW12>
4.419

> <Bond>
0.118

> <Angle>
0.515

> <Pdih>
0.977

> <Idih>
0.000

> <Tether>
0.000

$$$$
VeraChem MOL file


 20 19  0  0  0  0  0  0  0  0999 V2000     
   19.9686   18.6227   25.4434 N   0  3  0  0  0  0  0  0  0  0  0  0
   20.6122   18.0426   25.9917 H   0  0  0  0  0  0  0  0  0  0  0  0
   19.8604   19.5068   25.9504 H   0  0  0  0  0  0  0  0  0  0  0  0
   19.0579   18.1529   25.4596 H   0  0  0  0  0  0  0  0  0  0  0  0
   20.4698   18.8383   24.0296 C   0  0  0  0  0  0  0  0  0  0  0  0
   20.5904   17.8570   23.5635 H   0  0  0  0  0  0  0  0  0  0  0  0
   21.4525   19.3139   24.0887 H   0  0  0  0  0  0  0  0  0  0  0  0
   19.5241   19.7073   23.1787 C   0  0  0  0  0  0  0  0  0  0  0  0
   18.5368   19.2302   23.1201 H   0  0  0  0  0  0  0  0  0  0  0  0
   19.3769   20.6733   23.6797 H   0  0  0  0  0  0  0  0  0  0  0  0
   20.0653   19.9595   21.7515 C   0  0  0  0  0  0  0  0  0  0  0  0
   21.0416   20.4602   21.8125 H   0  0  0  0  0  0  0  0  0  0  0  0
   19.3907   20.6578   21.2369 H   0  0  0  0  0  0  0  0  0  0  0  0
   20.1939   18.6663   20.9118 C   0  0  0  0  0  0  0  0  0  0  0  0
   20.9047   17.9756   21.3854 H   0  0  0  0  0  0  0  0  0  0  0  0
   19.2247   18.1493   20.8761 H   0  0  0  0  0  0  0  0  0  0  0  0
   20.6662   18.9659   19.4730 C   0  0  0  0  0  0  0  0  0  0  0  0
   21.6489   19.4553   19.4739 H   0  0  0  0  0  0  0  0  0  0  0  0
   20.7527   18.0383   18.8923 H   0  0  0  0  0  0  0  0  0  0  0  0
   19.9574   19.6234   18.9530 H   0  0  0  0  0  0  0  0  0  0  0  0
  1  2  1  0  0  0  0
  1  3  1  0  0  0  0
  1  4  1  0  0  0  0
  1  5  1  0  0  0  0
  5  6  1  0  0  0  0
  5  7  1  0  0  0  0
  5  8  1  0  0  0  0
  8  9  1  0  0  0  0
  8 10  1  0  0  0  0
  8 11  1  0  0  0  0
 11 12  1  0  0  0  0
 11 13  1  0  0  0  0
 11 14  1  0  0  0  0
 14 15  1  0  0  0  0
 14 16  1  0  0  0  0
 14 17  1  0  0  0  0
 17 18  1  0  0  0  0
 17 19  1  0  0  0  0
 17 20  1  0  0  0  0
M  END
> <VM2 Rank>
5

> <Conf_Id>
125

> <Probability>
7.90

> <Sum Probability>
55.62

> <Delta G>
0.500

> <G>
27.507

> <E>
4.723

> <-TS>
22.784

> <U+W>
-11.373

> <U>
46.508

> <W>
-57.881

> <W(PB)>
-59.814

> <W(SA)>
1.932

> <Valence>
1.610

> <Coulomb>
44.536

> <VdW>
0.363

> <VdW6>
-4.057

> <VdW12>
4.419

> <Bond>
0.118

> <Angle>
0.515

> <Pdih>
0.977

> <Idih>
0.000

> <Tether>
0.000

$$$$
VeraChem MOL file


 20 19  0  0  0  0  0  0  0  0999 V2000     
   19.4823   19.4057   25.4133 N   0  3  0  0  0  0  0  0  0  0  0  0
   18.6902   18.7558   25.4357 H   0  0  0  0  0  0  0  0  0  0  0  0
   19.9097   19.3854   26.3452 H   0  0  0  0  0  0  0  0  0  0  0  0
   19.0968   20.3464   25.2837 H   0  0  0  0  0  0  0  0  0  0  0  0
   20.4786   19.0473   24.3291 C   0  0  0  0  0  0  0  0  0  0  0  0
   20.8696   18.0496   24.5467 H   0  0  0  0  0  0  0  0  0  0  0  0
   21.3065   19.7595   24.3826 H   0  0  0  0  0  0  0  0  0  0  0  0
   19.8688   19.0676   22.9160 C   0  0  0  0  0  0  0  0  0  0  0  0
   19.0279   18.3629   22.8713 H   0  0  0  0  0  0  0  0  0  0  0  0
   19.4641   20.0677   22.7155 H   0  0  0  0  0  0  0  0  0  0  0  0
   20.9189   18.6941   21.8432 C   0  0  0  0  0  0  0  0  0  0  0  0
   21.3669   17.7249   22.1033 H   0  0  0  0  0  0  0  0  0  0  0  0
   21.7384   19.4261   21.8567 H   0  0  0  0  0  0  0  0  0  0  0  0
   20.3341   18.5984   20.4130 C   0  0  0  0  0  0  0  0  0  0  0  0
   21.1169   18.2287   19.7359 H   0  0  0  0  0  0  0  0  0  0  0  0
   19.5297   17.8499   20.3895 H   0  0  0  0  0  0  0  0  0  0  0  0
   19.8052   19.9469   19.8734 C   0  0  0  0  0  0  0  0  0  0  0  0
   20.5829   20.7206   19.9126 H   0  0  0  0  0  0  0  0  0  0  0  0
   19.4872   19.8441   18.8278 H   0  0  0  0  0  0  0  0  0  0  0  0
   18.9394   20.2998   20.4474 H   0  0  0  0  0  0  0  0  0  0  0  0
  1  2  1  0  0  0  0
  1  3  1  0  0  0  0
  1  4  1  0  0  0  0
  1  5  1  0  0  0  0
  5  6  1  0  0  0  0
  5  7  1  0  0  0  0
  5  8  1  0  0  0  0
  8  9  1  0  0  0  0
  8 10  1  0  0  0  0
  8 11  1  0  0  0  0
 11 12  1  0  0  0  0
 11 13  1  0  0  0  0
 11 14  1  0  0  0  0
 14 15  1  0  0  0  0
 14 16  1  0  0  0  0
 14 17  1  0  0  0  0
 17 18  1  0  0  0  0
 17 19  1  0  0  0  0
 17 20  1  0  0  0  0
M  END
> <VM2 Rank>
6

> <Conf_Id>
278

> <Probability>
6.51

> <Sum Probability>
62.13

> <Delta G>
0.616

> <G>
27.623

> <E>
4.824

> <-TS>
22.798

> <U+W>
-11.272

> <U>
46.486

> <W>
-57.758

> <W(PB)>
-59.705

> <W(SA)>
1.947

> <Valence>
1.806

> <Coulomb>
44.248

> <VdW>
0.433

> <VdW6>
-4.089

> <VdW12>
4.522

> <Bond>
0.131

> <Angle>
0.628

> <Pdih>
1.047

> <Idih>
0.000

> <Tether>
0.000

$$$$
VeraChem MOL file


 20 19  0  0  0  0  0  0  0  0999 V2000     
   19.9291   18.4439   25.4144 N   0  3  0  0  0  0  0  0  0  0  0  0
   18.9215   18.2576   25.4362 H   0  0  0  0  0  0  0  0  0  0  0  0
   20.3995   17.5423   25.2871 H   0  0  0  0  0  0  0  0  0  0  0  0
   20.1883   18.7854   26.3460 H   0  0  0  0  0  0  0  0  0  0  0  0
   20.2988   19.4343   24.3287 C   0  0  0  0  0  0  0  0  0  0  0  0
   21.3770   19.6077   24.3828 H   0  0  0  0  0  0  0  0  0  0  0  0
   19.7883   20.3769   24.5439 H   0  0  0  0  0  0  0  0  0  0  0  0
   19.9224   18.9523   22.9161 C   0  0  0  0  0  0  0  0  0  0  0  0
   20.4258   17.9976   22.7180 H   0  0  0  0  0  0  0  0  0  0  0  0
   18.8415   18.7642   22.8708 H   0  0  0  0  0  0  0  0  0  0  0  0
   20.3154   19.9936   21.8416 C   0  0  0  0  0  0  0  0  0  0  0  0
   21.4033   20.1476   21.8559 H   0  0  0  0  0  0  0  0  0  0  0  0
   19.8634   20.9616   22.0994 H   0  0  0  0  0  0  0  0  0  0  0  0
   19.8663   19.6056   20.4118 C   0  0  0  0  0  0  0  0  0  0  0  0
   18.7755   19.4738   20.3875 H   0  0  0  0  0  0  0  0  0  0  0  0
   20.0896   20.4409   19.7332 H   0  0  0  0  0  0  0  0  0  0  0  0
   20.5560   18.3304   19.8754 C   0  0  0  0  0  0  0  0  0  0  0  0
   20.2732   18.1517   18.8299 H   0  0  0  0  0  0  0  0  0  0  0  0
   21.6488   18.4255   19.9154 H   0  0  0  0  0  0  0  0  0  0  0  0
   20.2665   17.4424   20.4509 H   0  0  0  0  0  0  0  0  0  0  0  0
  1  2  1  0  0  0  0
  1  3  1  0  0  0  0
  1  4  1  0  0  0  0
  1  5  1  0  0  0  0
  5  6  1  0  0  0  0
  5  7  1  0  0  0  0
  5  8  1  0  0  0  0
  8  9  1  0  0  0  0
  8 10  1  0  0  0  0
  8 11  1  0  0  0  0
 11 12  1  0  0  0  0
 11 13  1  0  0  0  0
 11 14  1  0  0  0  0
 14 15  1  0  0  0  0
 14 16  1  0  0  0  0
 14 17  1  0  0  0  0
 17 18  1  0  0  0  0
 17 19  1  0  0  0  0
 17 20  1  0  0  0  0
M  END
> <VM2 Rank>
7

> <Conf_Id>
301

> <Probability>
6.41

> <Sum Probability>
68.54

> <Delta G>
0.624

> <G>
27.631

> <E>
4.833

> <-TS>
22.799

> <U+W>
-11.264

> <U>
46.486

> <W>
-57.750

> <W(PB)>
-59.686

> <W(SA)>
1.936

> <Valence>
1.806

> <Coulomb>
44.248

> <VdW>
0.433

> <VdW6>
-4.089

> <VdW12>
4.522

> <Bond>
0.131

> <Angle>
0.628

> <Pdih>
1.047

> <Idih>
0.000

> <Tether>
0.000

$$$$
VeraChem MOL file


 20 19  0  0  0  0  0  0  0  0999 V2000     
   19.4805   19.1733   25.1477 N   0  3  0  0  0  0  0  0  0  0  0  0
   19.6590   19.4561   26.1171 H   0  0  0  0  0  0  0  0  0  0  0  0
   18.8426   19.8673   24.7474 H   0  0  0  0  0  0  0  0  0  0  0  0
   18.9743   18.2830   25.1858 H   0  0  0  0  0  0  0  0  0  0  0  0
   20.7649   19.0592   24.3494 C   0  0  0  0  0  0  0  0  0  0  0  0
   21.4081   18.3370   24.8597 H   0  0  0  0  0  0  0  0  0  0  0  0
   21.2645   20.0316   24.3680 H   0  0  0  0  0  0  0  0  0  0  0  0
   20.5554   18.6117   22.8893 C   0  0  0  0  0  0  0  0  0  0  0  0
   21.5430   18.4474   22.4407 H   0  0  0  0  0  0  0  0  0  0  0  0
   20.0380   17.6433   22.8736 H   0  0  0  0  0  0  0  0  0  0  0  0
   19.7662   19.6499   22.0525 C   0  0  0  0  0  0  0  0  0  0  0  0
   20.3013   20.6097   22.0540 H   0  0  0  0  0  0  0  0  0  0  0  0
   18.7935   19.8378   22.5260 H   0  0  0  0  0  0  0  0  0  0  0  0
   19.5138   19.2013   20.5923 C   0  0  0  0  0  0  0  0  0  0  0  0
   18.9666   18.2482   20.5854 H   0  0  0  0  0  0  0  0  0  0  0  0
   18.8560   19.9360   20.1071 H   0  0  0  0  0  0  0  0  0  0  0  0
   20.8072   19.0647   19.7567 C   0  0  0  0  0  0  0  0  0  0  0  0
   21.4450   18.2534   20.1287 H   0  0  0  0  0  0  0  0  0  0  0  0
   20.5658   18.8394   18.7099 H   0  0  0  0  0  0  0  0  0  0  0  0
   21.3888   19.9955   19.7735 H   0  0  0  0  0  0  0  0  0  0  0  0
  1  2  1  0  0  0  0
  1  3  1  0  0  0  0
  1  4  1  0  0  0  0
  1  5  1  0  0  0  0
  5  6  1  0  0  0  0
  5  7  1  0  0  0  0
  5  8  1  0  0  0  0
  8  9  1  0  0  0  0
  8 10  1  0  0  0  0
  8 11  1  0  0  0  0
 11 12  1  0  0  0  0
 11 13  1  0  0  0  0
 11 14  1  0  0  0  0
 14 15  1  0  0  0  0
 14 16  1  0  0  0  0
 14 17  1  0  0  0  0
 17 18  1  0  0  0  0
 17 19  1  0  0  0  0
 17 20  1  0  0  0  0
M  END
> <VM2 Rank>
8

> <Conf_Id>
33

> <Probability>
4.06

> <Sum Probability>
72.61

> <Delta G>
0.896

> <G>
27.903

> <E>
5.022

> <-TS>
22.881

> <U+W>
-11.075

> <U>
47.080

> <W>
-58.154

> <W(PB)>
-60.053

> <W(SA)>
1.899

> <Valence>
1.943

> <Coulomb>
44.572

> <VdW>
0.565

> <VdW6>
-4.575

> <VdW12>
5.139

> <Bond>
0.158

> <Angle>
0.700

> <Pdih>
1.085

> <Idih>
0.000

> <Tether>
0.000

$$$$
VeraChem MOL file


 20 19  0  0  0  0  0  0  0  0999 V2000     
   19.8993   19.9233   24.9640 N   0  3  0  0  0  0  0  0  0  0  0  0
   20.6423   20.6206   24.8555 H   0  0  0  0  0  0  0  0  0  0  0  0
   19.0663   20.2933   24.4969 H   0  0  0  0  0  0  0  0  0  0  0  0
   19.6826   19.8718   25.9649 H   0  0  0  0  0  0  0  0  0  0  0  0
   20.3061   18.5731   24.4060 C   0  0  0  0  0  0  0  0  0  0  0  0
   19.4830   17.8737   24.5756 H   0  0  0  0  0  0  0  0  0  0  0  0
   21.1712   18.2250   24.9769 H   0  0  0  0  0  0  0  0  0  0  0  0
   20.6615   18.6017   22.9066 C   0  0  0  0  0  0  0  0  0  0  0  0
   21.4893   19.3042   22.7469 H   0  0  0  0  0  0  0  0  0  0  0  0
   21.0311   17.6088   22.6181 H   0  0  0  0  0  0  0  0  0  0  0  0
   19.4522   18.9786   22.0145 C   0  0  0  0  0  0  0  0  0  0  0  0
   19.1270   20.0042   22.2345 H   0  0  0  0  0  0  0  0  0  0  0  0
   18.6055   18.3242   22.2644 H   0  0  0  0  0  0  0  0  0  0  0  0
   19.7429   18.8506   20.4995 C   0  0  0  0  0  0  0  0  0  0  0  0
   20.0413   17.8195   20.2636 H   0  0  0  0  0  0  0  0  0  0  0  0
   18.8124   19.0352   19.9446 H   0  0  0  0  0  0  0  0  0  0  0  0
   20.8259   19.8327   19.9975 C   0  0  0  0  0  0  0  0  0  0  0  0
   20.5636   20.8698   20.2438 H   0  0  0  0  0  0  0  0  0  0  0  0
   21.8061   19.6118   20.4377 H   0  0  0  0  0  0  0  0  0  0  0  0
   20.9314   19.7637   18.9070 H   0  0  0  0  0  0  0  0  0  0  0  0
  1  2  1  0  0  0  0
  1  3  1  0  0  0  0
  1  4  1  0  0  0  0
  1  5  1  0  0  0  0
  5  6  1  0  0  0  0
  5  7  1  0  0  0  0
  5  8  1  0  0  0  0
  8  9  1  0  0  0  0
  8 10  1  0  0  0  0
  8 11  1  0  0  0  0
 11 12  1  0  0  0  0
 11 13  1  0  0  0  0
 11 14  1  0  0  0  0
 14 15  1  0  0  0  0
 14 16  1  0  0  0  0
 14 17  1  0  0  0  0
 17 18  1  0  0  0  0
 17 19  1  0  0  0  0
 17 20  1  0  0  0  0
M  END
> <VM2 Rank>
9

> <Conf_Id>
120

> <Probability>
4.01

> <Sum Probability>
76.61

> <Delta G>
0.905

> <G>
27.912

> <E>
5.006

> <-TS>
22.906

> <U+W>
-11.090

> <U>
47.052

> <W>
-58.143

> <W(PB)>
-60.059

> <W(SA)>
1.917

> <Valence>
1.910

> <Coulomb>
44.625

> <VdW>
0.517

> <VdW6>
-4.612

> <VdW12>
5.129

> <Bond>
0.153

> <Angle>
0.652

> <Pdih>
1.104

> <Idih>
0.000

> <Tether>
0.000

$$$$
VeraChem MOL file


 20 19  0  0  0  0  0  0  0  0999 V2000     
   20.5937   18.4275   24.9658 N   0  3  0  0  0  0  0  0  0  0  0  0
   20.3389   17.5515   24.5002 H   0  0  0  0  0  0  0  0  0  0  0  0
   21.6060   18.5446   24.8578 H   0  0  0  0  0  0  0  0  0  0  0  0
   20.4137   18.2973   25.9668 H   0  0  0  0  0  0  0  0  0  0  0  0
   19.8254   19.6085   24.4047 C   0  0  0  0  0  0  0  0  0  0  0  0
   20.1174   20.4952   24.9741 H   0  0  0  0  0  0  0  0  0  0  0  0
   18.7598   19.4316   24.5738 H   0  0  0  0  0  0  0  0  0  0  0  0
   20.0780   19.8586   22.9051 C   0  0  0  0  0  0  0  0  0  0  0  0
   19.5583   20.7811   22.6142 H   0  0  0  0  0  0  0  0  0  0  0  0
   21.1490   20.0373   22.7460 H   0  0  0  0  0  0  0  0  0  0  0  0
   19.5863   18.6898   22.0149 C   0  0  0  0  0  0  0  0  0  0  0  0
   18.5398   18.4658   22.2643 H   0  0  0  0  0  0  0  0  0  0  0  0
   20.1597   17.7800   22.2372 H   0  0  0  0  0  0  0  0  0  0  0  0
   19.6775   18.9914   20.4993 C   0  0  0  0  0  0  0  0  0  0  0  0
   19.2186   18.1603   19.9457 H   0  0  0  0  0  0  0  0  0  0  0  0
   19.0824   19.8842   20.2611 H   0  0  0  0  0  0  0  0  0  0  0  0
   21.1271   19.1841   19.9983 C   0  0  0  0  0  0  0  0  0  0  0  0
   21.5904   20.0764   20.4371 H   0  0  0  0  0  0  0  0  0  0  0  0
   21.7499   18.3151   20.2470 H   0  0  0  0  0  0  0  0  0  0  0  0
   21.1434   19.3070   18.9076 H   0  0  0  0  0  0  0  0  0  0  0  0
  1  2  1  0  0  0  0
  1  3  1  0  0  0  0
  1  4  1  0  0  0  0
  1  5  1  0  0  0  0
  5  6  1  0  0  0  0
  5  7  1  0  0  0  0
  5  8  1  0  0  0  0
  8  9  1  0  0  0  0
  8 10  1  0  0  0  0
  8 11  1  0  0  0  0
 11 12  1  0  0  0  0
 11 13  1  0  0  0  0
 11 14  1  0  0  0  0
 14 15  1  0  0  0  0
 14 16  1  0  0  0  0
 14 17  1  0  0  0  0
 17 18  1  0  0  0  0
 17 19  1  0  0  0  0
 17 20  1  0  0  0  0
M  END
> <VM2 Rank>
10

> <Conf_Id>
292

> <Probability>
3.87

> <Sum Probability>
80.48

> <Delta G>
0.925

> <G>
27.932

> <E>
5.026

> <-TS>
22.906

> <U+W>
-11.070

> <U>
47.053

> <W>
-58.123

> <W(PB)>
-60.032

> <W(SA)>
1.910

> <Valence>
1.909

> <Coulomb>
44.625

> <VdW>
0.518

> <VdW6>
-4.612

> <VdW12>
5.130

> <Bond>
0.153

> <Angle>
0.652

> <Pdih>
1.104

> <Idih>
0.000

> <Tether>
0.000

$$$$
VeraChem MOL file


 20 19  0  0  0  0  0  0  0  0999 V2000     
   19.9275   19.7544   25.1737 N   0  3  0  0  0  0  0  0  0  0  0  0
   19.4491   19.0294   25.7175 H   0  0  0  0  0  0  0  0  0  0  0  0
   20.6507   20.1532   25.7815 H   0  0  0  0  0  0  0  0  0  0  0  0
   19.2448   20.4979   24.9967 H   0  0  0  0  0  0  0  0  0  0  0  0
   20.5124   19.2047   23.8884 C   0  0  0  0  0  0  0  0  0  0  0  0
   21.2496   18.4414   24.1518 H   0  0  0  0  0  0  0  0  0  0  0  0
   21.0301   20.0215   23.3787 H   0  0  0  0  0  0  0  0  0  0  0  0
   19.4511   18.5980   22.9513 C   0  0  0  0  0  0  0  0  0  0  0  0
   18.9095   17.8070   23.4867 H   0  0  0  0  0  0  0  0  0  0  0  0
   18.7054   19.3610   22.6937 H   0  0  0  0  0  0  0  0  0  0  0  0
   20.0633   17.9984   21.6607 C   0  0  0  0  0  0  0  0  0  0  0  0
   19.2563   17.5747   21.0471 H   0  0  0  0  0  0  0  0  0  0  0  0
   20.7112   17.1535   21.9326 H   0  0  0  0  0  0  0  0  0  0  0  0
   20.8810   18.9978   20.8029 C   0  0  0  0  0  0  0  0  0  0  0  0
   21.7556   19.3532   21.3645 H   0  0  0  0  0  0  0  0  0  0  0  0
   21.2809   18.4641   19.9293 H   0  0  0  0  0  0  0  0  0  0  0  0
   20.0527   20.2066   20.3112 C   0  0  0  0  0  0  0  0  0  0  0  0
   20.6495   20.8320   19.6347 H   0  0  0  0  0  0  0  0  0  0  0  0
   19.1601   19.8773   19.7636 H   0  0  0  0  0  0  0  0  0  0  0  0
   19.7297   20.8402   21.1466 H   0  0  0  0  0  0  0  0  0  0  0  0
  1  2  1  0  0  0  0
  1  3  1  0  0  0  0
  1  4  1  0  0  0  0
  1  5  1  0  0  0  0
  5  6  1  0  0  0  0
  5  7  1  0  0  0  0
  5  8  1  0  0  0  0
  8  9  1  0  0  0  0
  8 10  1  0  0  0  0
  8 11  1  0  0  0  0
 11 12  1  0  0  0  0
 11 13  1  0  0  0  0
 11 14  1  0  0  0  0
 14 15  1  0  0  0  0
 14 16  1  0  0  0  0
 14 17  1  0  0  0  0
 17 18  1  0  0  0  0
 17 19  1  0  0  0  0
 17 20  1  0  0  0  0
M  END
> <VM2 Rank>
11

> <Conf_Id>
87

> <Probability>
3.24

> <Sum Probability>
83.73

> <Delta G>
1.031

> <G>
28.038

> <E>
5.023

> <-TS>
23.014

> <U+W>
-11.073

> <U>
47.078

> <W>
-58.151

> <W(PB)>
-60.057

> <W(SA)>
1.906

> <Valence>
2.039

> <Coulomb>
44.655

> <VdW>
0.383

> <VdW6>
-4.913

> <VdW12>
5.296

> <Bond>
0.159

> <Angle>
0.856

> <Pdih>
1.024

> <Idih>
0.000

> <Tether>
0.000

$$$$
VeraChem MOL file


 20 19  0  0  0  0  0  0  0  0999 V2000     
   19.7506   18.5919   25.1484 N   0  3  0  0  0  0  0  0  0  0  0  0
   19.8699   17.6559   24.7501 H   0  0  0  0  0  0  0  0  0  0  0  0
   20.0810   18.5478   26.1182 H   0  0  0  0  0  0  0  0  0  0  0  0
   18.7438   18.7793   25.1852 H   0  0  0  0  0  0  0  0  0  0  0  0
   20.4926   19.6454   24.3486 C   0  0  0  0  0  0  0  0  0  0  0  0
   21.5578   19.4000   24.3688 H   0  0  0  0  0  0  0  0  0  0  0  0
   20.3551   20.6037   24.8569 H   0  0  0  0  0  0  0  0  0  0  0  0
   20.0168   19.7710   22.8879 C   0  0  0  0  0  0  0  0  0  0  0  0
   18.9431   20.0002   22.8707 H   0  0  0  0  0  0  0  0  0  0  0  0
   20.5287   20.6308   22.4381 H   0  0  0  0  0  0  0  0  0  0  0  0
   20.3020   18.4965   22.0539 C   0  0  0  0  0  0  0  0  0  0  0  0
   19.8177   17.6330   22.5287 H   0  0  0  0  0  0  0  0  0  0  0  0
   21.3805   18.2864   22.0568 H   0  0  0  0  0  0  0  0  0  0  0  0
   19.7978   18.5901   20.5931 C   0  0  0  0  0  0  0  0  0  0  0  0
   19.9355   17.6127   20.1099 H   0  0  0  0  0  0  0  0  0  0  0  0
   18.7165   18.7866   20.5847 H   0  0  0  0  0  0  0  0  0  0  0  0
   20.5283   19.6650   19.7561 C   0  0  0  0  0  0  0  0  0  0  0  0
   21.6148   19.5092   19.7742 H   0  0  0  0  0  0  0  0  0  0  0  0
   20.2015   19.6238   18.7089 H   0  0  0  0  0  0  0  0  0  0  0  0
   20.3192   20.6764   20.1258 H   0  0  0  0  0  0  0  0  0  0  0  0
  1  2  1  0  0  0  0
  1  3  1  0  0  0  0
  1  4  1  0  0  0  0
  1  5  1  0  0  0  0
  5  6  1  0  0  0  0
  5  7  1  0  0  0  0
  5  8  1  0  0  0  0
  8  9  1  0  0  0  0
  8 10  1  0  0  0  0
  8 11  1  0  0  0  0
 11 12  1  0  0  0  0
 11 13  1  0  0  0  0
 11 14  1  0  0  0  0
 14 15  1  0  0  0  0
 14 16  1  0  0  0  0
 14 17  1  0  0  0  0
 17 18  1  0  0  0  0
 17 19  1  0  0  0  0
 17 20  1  0  0  0  0
M  END
> <VM2 Rank>
12

> <Conf_Id>
86

> <Probability>
3.20

> <Sum Probability>
86.93

> <Delta G>
1.038

> <G>
28.045

> <E>
5.164

> <-TS>
22.881

> <U+W>
-10.932

> <U>
47.080

> <W>
-58.012

> <W(PB)>
-59.915

> <W(SA)>
1.903

> <Valence>
1.943

> <Coulomb>
44.572

> <VdW>
0.565

> <VdW6>
-4.575

> <VdW12>
5.140

> <Bond>
0.158

> <Angle>
0.700

> <Pdih>
1.085

> <Idih>
0.000

> <Tether>
0.000

$$$$
VeraChem MOL file


 20 19  0  0  0  0  0  0  0  0999 V2000     
   20.5240   19.9290   24.7152 N   0  3  0  0  0  0  0  0  0  0  0  0
   20.1704   20.6587   25.3427 H   0  0  0  0  0  0  0  0  0  0  0  0
   21.1748   19.3559   25.2612 H   0  0  0  0  0  0  0  0  0  0  0  0
   21.0708   20.3983   23.9874 H   0  0  0  0  0  0  0  0  0  0  0  0
   19.3999   19.0995   24.1256 C   0  0  0  0  0  0  0  0  0  0  0  0
   18.7293   19.7723   23.5850 H   0  0  0  0  0  0  0  0  0  0  0  0
   18.8404   18.6597   24.9557 H   0  0  0  0  0  0  0  0  0  0  0  0
   19.8839   17.9772   23.1845 C   0  0  0  0  0  0  0  0  0  0  0  0
   20.5193   17.2831   23.7503 H   0  0  0  0  0  0  0  0  0  0  0  0
   19.0133   17.3945   22.8549 H   0  0  0  0  0  0  0  0  0  0  0  0
   20.6587   18.4843   21.9420 C   0  0  0  0  0  0  0  0  0  0  0  0
   20.9806   17.6149   21.3521 H   0  0  0  0  0  0  0  0  0  0  0  0
   21.5784   18.9949   22.2573 H   0  0  0  0  0  0  0  0  0  0  0  0
   19.8211   19.4237   21.0422 C   0  0  0  0  0  0  0  0  0  0  0  0
   18.8911   18.9195   20.7444 H   0  0  0  0  0  0  0  0  0  0  0  0
   19.5291   20.3236   21.6001 H   0  0  0  0  0  0  0  0  0  0  0  0
   20.6004   19.8464   19.7785 C   0  0  0  0  0  0  0  0  0  0  0  0
   20.8748   18.9730   19.1727 H   0  0  0  0  0  0  0  0  0  0  0  0
   19.9921   20.5121   19.1525 H   0  0  0  0  0  0  0  0  0  0  0  0
   21.5216   20.3818   20.0431 H   0  0  0  0  0  0  0  0  0  0  0  0
  1  2  1  0  0  0  0
  1  3  1  0  0  0  0
  1  4  1  0  0  0  0
  1  5  1  0  0  0  0
  5  6  1  0  0  0  0
  5  7  1  0  0  0  0
  5  8  1  0  0  0  0
  8  9  1  0  0  0  0
  8 10  1  0  0  0  0
  8 11  1  0  0  0  0
 11 12  1  0  0  0  0
 11 13  1  0  0  0  0
 11 14  1  0  0  0  0
 14 15  1  0  0  0  0
 14 16  1  0  0  0  0
 14 17  1  0  0  0  0
 17 18  1  0  0  0  0
 17 19  1  0  0  0  0
 17 20  1  0  0  0  0
M  END
> <VM2 Rank>
13

> <Conf_Id>
272

> <Probability>
3.14

> <Sum Probability>
90.07

> <Delta G>
1.051

> <G>
28.058

> <E>
5.091

> <-TS>
22.967

> <U+W>
-11.006

> <U>
47.126

> <W>
-58.132

> <W(PB)>
-60.041

> <W(SA)>
1.910

> <Valence>
1.704

> <Coulomb>
45.050

> <VdW>
0.372

> <VdW6>
-4.760

> <VdW12>
5.132

> <Bond>
0.144

> <Angle>
0.634

> <Pdih>
0.927

> <Idih>
0.000

> <Tether>
0.000

$$$$
VeraChem MOL file


 20 19  0  0  0  0  0  0  0  0999 V2000     
   20.4825   18.5583   25.1751 N   0  3  0  0  0  0  0  0  0  0  0  0
   20.6096   17.5565   25.0003 H   0  0  0  0  0  0  0  0  0  0  0  0
   21.2534   18.8543   25.7832 H   0  0  0  0  0  0  0  0  0  0  0  0
   19.6195   18.6622   25.7180 H   0  0  0  0  0  0  0  0  0  0  0  0
   20.4416   19.3573   23.8882 C   0  0  0  0  0  0  0  0  0  0  0  0
   21.4001   19.2242   23.3797 H   0  0  0  0  0  0  0  0  0  0  0  0
   20.3344   20.4136   24.1494 H   0  0  0  0  0  0  0  0  0  0  0  0
   19.2940   18.9367   22.9509 C   0  0  0  0  0  0  0  0  0  0  0  0
   19.3954   17.8742   22.6954 H   0  0  0  0  0  0  0  0  0  0  0  0
   18.3397   19.0347   23.4852 H   0  0  0  0  0  0  0  0  0  0  0  0
   19.2325   19.7889   21.6586 C   0  0  0  0  0  0  0  0  0  0  0  0
   19.0053   20.8296   21.9283 H   0  0  0  0  0  0  0  0  0  0  0  0
   18.3885   19.4450   21.0449 H   0  0  0  0  0  0  0  0  0  0  0  0
   20.5243   19.7664   20.8019 C   0  0  0  0  0  0  0  0  0  0  0  0
   20.3757   20.4147   19.9270 H   0  0  0  0  0  0  0  0  0  0  0  0
   21.3599   20.2059   21.3635 H   0  0  0  0  0  0  0  0  0  0  0  0
   20.9131   18.3525   20.3133 C   0  0  0  0  0  0  0  0  0  0  0  0
   21.7766   18.4032   19.6375 H   0  0  0  0  0  0  0  0  0  0  0  0
   21.1876   17.6984   21.1502 H   0  0  0  0  0  0  0  0  0  0  0  0
   20.0858   17.8825   19.7658 H   0  0  0  0  0  0  0  0  0  0  0  0
  1  2  1  0  0  0  0
  1  3  1  0  0  0  0
  1  4  1  0  0  0  0
  1  5  1  0  0  0  0
  5  6  1  0  0  0  0
  5  7  1  0  0  0  0
  5  8  1  0  0  0  0
  8  9  1  0  0  0  0
  8 10  1  0  0  0  0
  8 11  1  0  0  0  0
 11 12  1  0  0  0  0
 11 13  1  0  0  0  0
 11 14  1  0  0  0  0
 14 15  1  0  0  0  0
 14 16  1  0  0  0  0
 14 17  1  0  0  0  0
 17 18  1  0  0  0  0
 17 19  1  0  0  0  0
 17 20  1  0  0  0  0
M  END
> <VM2 Rank>
14

> <Conf_Id>
191

> <Probability>
3.12

> <Sum Probability>
93.18

> <Delta G>
1.055

> <G>
28.062

> <E>
5.047

> <-TS>
23.014

> <U+W>
-11.049

> <U>
47.078

> <W>
-58.127

> <W(PB)>
-60.031

> <W(SA)>
1.905

> <Valence>
2.039

> <Coulomb>
44.655

> <VdW>
0.383

> <VdW6>
-4.912

> <VdW12>
5.295

> <Bond>
0.159

> <Angle>
0.856

> <Pdih>
1.024

> <Idih>
0.000

> <Tether>
0.000

$$$$
VeraChem MOL file


 20 19  0  0  0  0  0  0  0  0999 V2000     
   21.0015   18.9006   24.7164 N   0  3  0  0  0  0  0  0  0  0  0  0
   21.7136   19.0139   23.9889 H   0  0  0  0  0  0  0  0  0  0  0  0
   20.9832   19.7687   25.2606 H   0  0  0  0  0  0  0  0  0  0  0  0
   21.3302   18.1608   25.3457 H   0  0  0  0  0  0  0  0  0  0  0  0
   19.6430   18.5760   24.1262 C   0  0  0  0  0  0  0  0  0  0  0  0
   18.9452   18.4340   24.9560 H   0  0  0  0  0  0  0  0  0  0  0  0
   19.7246   17.6285   23.5875 H   0  0  0  0  0  0  0  0  0  0  0  0
   19.0987   19.6681   23.1824 C   0  0  0  0  0  0  0  0  0  0  0  0
   18.0922   19.3784   22.8526 H   0  0  0  0  0  0  0  0  0  0  0  0
   18.9781   20.6025   23.7464 H   0  0  0  0  0  0  0  0  0  0  0  0
   19.9873   19.9303   21.9403 C   0  0  0  0  0  0  0  0  0  0  0  0
   20.9706   20.3041   22.2557 H   0  0  0  0  0  0  0  0  0  0  0  0
   19.5314   20.7361   21.3484 H   0  0  0  0  0  0  0  0  0  0  0  0
   20.1652   18.6825   21.0431 C   0  0  0  0  0  0  0  0  0  0  0  0
   20.6638   17.8798   21.6031 H   0  0  0  0  0  0  0  0  0  0  0  0
   19.1802   18.2969   20.7451 H   0  0  0  0  0  0  0  0  0  0  0  0
   20.9923   19.0025   19.7796 C   0  0  0  0  0  0  0  0  0  0  0  0
   21.9955   19.3611   20.0444 H   0  0  0  0  0  0  0  0  0  0  0  0
   21.1088   18.1070   19.1554 H   0  0  0  0  0  0  0  0  0  0  0  0
   20.5027   19.7746   19.1718 H   0  0  0  0  0  0  0  0  0  0  0  0
  1  2  1  0  0  0  0
  1  3  1  0  0  0  0
  1  4  1  0  0  0  0
  1  5  1  0  0  0  0
  5  6  1  0  0  0  0
  5  7  1  0  0  0  0
  5  8  1  0  0  0  0
  8  9  1  0  0  0  0
  8 10  1  0  0  0  0
  8 11  1  0  0  0  0
 11 12  1  0  0  0  0
 11 13  1  0  0  0  0
 11 14  1  0  0  0  0
 14 15  1  0  0  0  0
 14 16  1  0  0  0  0
 14 17  1  0  0  0  0
 17 18  1  0  0  0  0
 17 19  1  0  0  0  0
 17 20  1  0  0  0  0
M  END
> <VM2 Rank>
15

> <Conf_Id>
93

> <Probability>
3.10

> <Sum Probability>
96.28

> <Delta G>
1.058

> <G>
28.065

> <E>
5.098

> <-TS>
22.967

> <U+W>
-10.998

> <U>
47.126

> <W>
-58.124

> <W(PB)>
-60.036

> <W(SA)>
1.911

> <Valence>
1.704

> <Coulomb>
45.050

> <VdW>
0.372

> <VdW6>
-4.760

> <VdW12>
5.133

> <Bond>
0.143

> <Angle>
0.634

> <Pdih>
0.927

> <Idih>
0.000

> <Tether>
0.000

$$$$
VeraChem MOL file


 20 19  0  0  0  0  0  0  0  0999 V2000     
   19.3249   19.3698   24.7368 N   0  3  0  0  0  0  0  0  0  0  0  0
   18.5130   19.1669   24.1464 H   0  0  0  0  0  0  0  0  0  0  0  0
   19.4603   18.5624   25.3531 H   0  0  0  0  0  0  0  0  0  0  0  0
   19.0709   20.1627   25.3352 H   0  0  0  0  0  0  0  0  0  0  0  0
   20.5616   19.6612   23.9094 C   0  0  0  0  0  0  0  0  0  0  0  0
   21.3758   19.8980   24.5995 H   0  0  0  0  0  0  0  0  0  0  0  0
   20.3631   20.5482   23.3022 H   0  0  0  0  0  0  0  0  0  0  0  0
   20.9870   18.4921   22.9980 C   0  0  0  0  0  0  0  0  0  0  0  0
   21.9267   18.7578   22.4972 H   0  0  0  0  0  0  0  0  0  0  0  0
   21.2164   17.6168   23.6200 H   0  0  0  0  0  0  0  0  0  0  0  0
   19.9244   18.1003   21.9376 C   0  0  0  0  0  0  0  0  0  0  0  0
   19.0442   17.6808   22.4429 H   0  0  0  0  0  0  0  0  0  0  0  0
   20.3266   17.2870   21.3180 H   0  0  0  0  0  0  0  0  0  0  0  0
   19.4686   19.2594   21.0147 C   0  0  0  0  0  0  0  0  0  0  0  0
   18.7051   18.8772   20.3227 H   0  0  0  0  0  0  0  0  0  0  0  0
   18.9751   20.0437   21.6045 H   0  0  0  0  0  0  0  0  0  0  0  0
   20.6216   19.8773   20.1915 C   0  0  0  0  0  0  0  0  0  0  0  0
   21.3562   20.3743   20.8372 H   0  0  0  0  0  0  0  0  0  0  0  0
   21.1428   19.1100   19.6045 H   0  0  0  0  0  0  0  0  0  0  0  0
   20.2346   20.6295   19.4921 H   0  0  0  0  0  0  0  0  0  0  0  0
  1  2  1  0  0  0  0
  1  3  1  0  0  0  0
  1  4  1  0  0  0  0
  1  5  1  0  0  0  0
  5  6  1  0  0  0  0
  5  7  1  0  0  0  0
  5  8  1  0  0  0  0
  8  9  1  0  0  0  0
  8 10  1  0  0  0  0
  8 11  1  0  0  0  0
 11 12  1  0  0  0  0
 11 13  1  0  0  0  0
 11 14  1  0  0  0  0
 14 15  1  0  0  0  0
 14 16  1  0  0  0  0
 14 17  1  0  0  0  0
 17 18  1  0  0  0  0
 17 19  1  0  0  0  0
 17 20  1  0  0  0  0
M  END
> <VM2 Rank>
16

> <Conf_Id>
104

> <Probability>
1.42

> <Sum Probability>
97.70

> <Delta G>
1.522

> <G>
28.529

> <E>
5.312

> <-TS>
23.217

> <U+W>
-10.785

> <U>
47.562

> <W>
-58.347

> <W(PB)>
-60.222

> <W(SA)>
1.875

> <Valence>
2.149

> <Coulomb>
45.034

> <VdW>
0.378

> <VdW6>
-5.598

> <VdW12>
5.977

> <Bond>
0.185

> <Angle>
0.935

> <Pdih>
1.028

> <Idih>
0.000

> <Tether>
0.000

$$$$
VeraChem MOL file


 20 19  0  0  0  0  0  0  0  0999 V2000     
   19.8010   18.3451   24.7378 N   0  3  0  0  0  0  0  0  0  0  0  0
   19.2706   18.9704   25.3524 H   0  0  0  0  0  0  0  0  0  0  0  0
   19.1231   17.8542   24.1476 H   0  0  0  0  0  0  0  0  0  0  0  0
   20.2428   17.6409   25.3379 H   0  0  0  0  0  0  0  0  0  0  0  0
   20.8219   19.1011   23.9099 C   0  0  0  0  0  0  0  0  0  0  0  0
   21.3726   18.3763   23.3046 H   0  0  0  0  0  0  0  0  0  0  0  0
   21.5273   19.5721   24.5999 H   0  0  0  0  0  0  0  0  0  0  0  0
   20.2034   20.1783   22.9960 C   0  0  0  0  0  0  0  0  0  0  0  0
   19.6817   20.9192   23.6161 H   0  0  0  0  0  0  0  0  0  0  0  0
   21.0128   20.7243   22.4948 H   0  0  0  0  0  0  0  0  0  0  0  0
   19.2198   19.6167   21.9357 C   0  0  0  0  0  0  0  0  0  0  0  0
   18.8581   20.4473   21.3140 H   0  0  0  0  0  0  0  0  0  0  0  0
   18.3309   19.2155   22.4410 H   0  0  0  0  0  0  0  0  0  0  0  0
   19.8126   18.5189   21.0157 C   0  0  0  0  0  0  0  0  0  0  0  0
   20.0929   17.6371   21.6076 H   0  0  0  0  0  0  0  0  0  0  0  0
   19.0288   18.1807   20.3235 H   0  0  0  0  0  0  0  0  0  0  0  0
   21.0294   18.9999   20.1929 C   0  0  0  0  0  0  0  0  0  0  0  0
   21.8823   19.2418   20.8392 H   0  0  0  0  0  0  0  0  0  0  0  0
   21.3554   18.2176   19.4954 H   0  0  0  0  0  0  0  0  0  0  0  0
   20.7799   19.8919   19.6039 H   0  0  0  0  0  0  0  0  0  0  0  0
  1  2  1  0  0  0  0
  1  3  1  0  0  0  0
  1  4  1  0  0  0  0
  1  5  1  0  0  0  0
  5  6  1  0  0  0  0
  5  7  1  0  0  0  0
  5  8  1  0  0  0  0
  8  9  1  0  0  0  0
  8 10  1  0  0  0  0
  8 11  1  0  0  0  0
 11 12  1  0  0  0  0
 11 13  1  0  0  0  0
 11 14  1  0  0  0  0
 14 15  1  0  0  0  0
 14 16  1  0  0  0  0
 14 17  1  0  0  0  0
 17 18  1  0  0  0  0
 17 19  1  0  0  0  0
 17 20  1  0  0  0  0
M  END
> <VM2 Rank>
17

> <Conf_Id>
1

> <Probability>
1.33

> <Sum Probability>
99.03

> <Delta G>
1.561

> <G>
28.568

> <E>
5.351

> <-TS>
23.218

> <U+W>
-10.746

> <U>
47.562

> <W>
-58.308

> <W(PB)>
-60.184

> <W(SA)>
1.877

> <Valence>
2.149

> <Coulomb>
45.035

> <VdW>
0.378

> <VdW6>
-5.599

> <VdW12>
5.978

> <Bond>
0.185

> <Angle>
0.935

> <Pdih>
1.028

> <Idih>
0.000

> <Tether>
0.000

$$$$
VeraChem MOL file


 20 19  0  0  0  0  0  0  0  0999 V2000     
   20.4973   18.6695   25.2001 N   0  3  0  0  0  0  0  0  0  0  0  0
   19.8988   17.8509   25.3481 H   0  0  0  0  0  0  0  0  0  0  0  0
   21.4153   18.4423   25.5966 H   0  0  0  0  0  0  0  0  0  0  0  0
   20.1102   19.4316   25.7654 H   0  0  0  0  0  0  0  0  0  0  0  0
   20.5933   19.0436   23.7347 C   0  0  0  0  0  0  0  0  0  0  0  0
   21.0391   18.1984   23.2053 H   0  0  0  0  0  0  0  0  0  0  0  0
   21.2647   19.9021   23.6479 H   0  0  0  0  0  0  0  0  0  0  0  0
   19.2298   19.3852   23.1079 C   0  0  0  0  0  0  0  0  0  0  0  0
   18.5796   18.5009   23.1426 H   0  0  0  0  0  0  0  0  0  0  0  0
   18.7413   20.1533   23.7222 H   0  0  0  0  0  0  0  0  0  0  0  0
   19.3209   19.9069   21.6513 C   0  0  0  0  0  0  0  0  0  0  0  0
   19.9222   20.8258   21.6150 H   0  0  0  0  0  0  0  0  0  0  0  0
   18.3084   20.2026   21.3431 H   0  0  0  0  0  0  0  0  0  0  0  0
   19.8535   18.8774   20.6209 C   0  0  0  0  0  0  0  0  0  0  0  0
   19.4945   17.8688   20.8690 H   0  0  0  0  0  0  0  0  0  0  0  0
   19.4221   19.1178   19.6390 H   0  0  0  0  0  0  0  0  0  0  0  0
   21.3933   18.8775   20.4731 C   0  0  0  0  0  0  0  0  0  0  0  0
   21.8991   18.5567   21.3896 H   0  0  0  0  0  0  0  0  0  0  0  0
   21.6997   18.1908   19.6733 H   0  0  0  0  0  0  0  0  0  0  0  0
   21.7637   19.8772   20.2114 H   0  0  0  0  0  0  0  0  0  0  0  0
  1  2  1  0  0  0  0
  1  3  1  0  0  0  0
  1  4  1  0  0  0  0
  1  5  1  0  0  0  0
  5  6  1  0  0  0  0
  5  7  1  0  0  0  0
  5  8  1  0  0  0  0
  8  9  1  0  0  0  0
  8 10  1  0  0  0  0
  8 11  1  0  0  0  0
 11 12  1  0  0  0  0
 11 13  1  0  0  0  0
 11 14  1  0  0  0  0
 14 15  1  0  0  0  0
 14 16  1  0  0  0  0
 14 17  1  0  0  0  0
 17 18  1  0  0  0  0
 17 19  1  0  0  0  0
 17 20  1  0  0  0  0
M  END
> <VM2 Rank>
18

> <Conf_Id>
139

> <Probability>
0.22

> <Sum Probability>
99.25

> <Delta G>
2.633

> <G>
29.640

> <E>
6.955

> <-TS>
22.685

> <U+W>
-9.141

> <U>
48.916

> <W>
-58.057

> <W(PB)>
-59.981

> <W(SA)>
1.924

> <Valence>
3.785

> <Coulomb>
44.716

> <VdW>
0.415

> <VdW6>
-4.836

> <VdW12>
5.251

> <Bond>
0.175

> <Angle>
1.196

> <Pdih>
2.414

> <Idih>
0.000

> <Tether>
0.000

$$$$
VeraChem MOL file


 20 19  0  0  0  0  0  0  0  0999 V2000     
   20.0213   19.6940   25.1988 N   0  3  0  0  0  0  0  0  0  0  0  0
   20.3534   18.9077   25.7661 H   0  0  0  0  0  0  0  0  0  0  0  0
   20.4395   20.5428   25.5940 H   0  0  0  0  0  0  0  0  0  0  0  0
   19.0095   19.7650   25.3456 H   0  0  0  0  0  0  0  0  0  0  0  0
   20.3705   19.5230   23.7341 C   0  0  0  0  0  0  0  0  0  0  0  0
   21.4598   19.4822   23.6485 H   0  0  0  0  0  0  0  0  0  0  0  0
   20.0128   20.4077   23.2026 H   0  0  0  0  0  0  0  0  0  0  0  0
   19.7528   18.2595   23.1092 C   0  0  0  0  0  0  0  0  0  0  0  0
   20.0242   17.3920   23.7255 H   0  0  0  0  0  0  0  0  0  0  0  0
   18.6577   18.3330   23.1429 H   0  0  0  0  0  0  0  0  0  0  0  0
   20.2115   17.9898   21.6537 C   0  0  0  0  0  0  0  0  0  0  0  0
   19.7848   17.0247   21.3470 H   0  0  0  0  0  0  0  0  0  0  0  0
   21.3017   17.8566   21.6185 H   0  0  0  0  0  0  0  0  0  0  0  0
   19.7692   19.0587   20.6208 C   0  0  0  0  0  0  0  0  0  0  0  0
   19.6754   18.5720   19.6397 H   0  0  0  0  0  0  0  0  0  0  0  0
   18.7667   19.4354   20.8674 H   0  0  0  0  0  0  0  0  0  0  0  0
   20.7626   20.2350   20.4714 C   0  0  0  0  0  0  0  0  0  0  0  0
   20.4361   20.9106   19.6702 H   0  0  0  0  0  0  0  0  0  0  0  0
   20.8431   20.8302   21.3869 H   0  0  0  0  0  0  0  0  0  0  0  0
   21.7656   19.8728   20.2111 H   0  0  0  0  0  0  0  0  0  0  0  0
  1  2  1  0  0  0  0
  1  3  1  0  0  0  0
  1  4  1  0  0  0  0
  1  5  1  0  0  0  0
  5  6  1  0  0  0  0
  5  7  1  0  0  0  0
  5  8  1  0  0  0  0
  8  9  1  0  0  0  0
  8 10  1  0  0  0  0
  8 11  1  0  0  0  0
 11 12  1  0  0  0  0
 11 13  1  0  0  0  0
 11 14  1  0  0  0  0
 14 15  1  0  0  0  0
 14 16  1  0  0  0  0
 14 17  1  0  0  0  0
 17 18  1  0  0  0  0
 17 19  1  0  0  0  0
 17 20  1  0  0  0  0
M  END
> <VM2 Rank>
19

> <Conf_Id>
236

> <Probability>
0.21

> <Sum Probability>
99.46

> <Delta G>
2.664

> <G>
29.671

> <E>
6.986

> <-TS>
22.685

> <U+W>
-9.110

> <U>
48.916

> <W>
-58.026

> <W(PB)>
-59.935

> <W(SA)>
1.909

> <Valence>
3.785

> <Coulomb>
44.716

> <VdW>
0.415

> <VdW6>
-4.836

> <VdW12>
5.251

> <Bond>
0.175

> <Angle>
1.195

> <Pdih>
2.415

> <Idih>
0.000

> <Tether>
0.000

$$$$
VeraChem MOL file


 20 19  0  0  0  0  0  0  0  0999 V2000     
   18.9505   19.5067   24.3938 N   0  3  0  0  0  0  0  0  0  0  0  0
   18.5748   19.8373   23.5013 H   0  0  0  0  0  0  0  0  0  0  0  0
   18.4533   18.6422   24.6298 H   0  0  0  0  0  0  0  0  0  0  0  0
   18.6934   20.2002   25.1042 H   0  0  0  0  0  0  0  0  0  0  0  0
   20.4511   19.2941   24.3336 C   0  0  0  0  0  0  0  0  0  0  0  0
   20.7644   18.9564   25.3253 H   0  0  0  0  0  0  0  0  0  0  0  0
   20.9320   20.2561   24.1369 H   0  0  0  0  0  0  0  0  0  0  0  0
   20.9053   18.2571   23.2849 C   0  0  0  0  0  0  0  0  0  0  0  0
   21.8933   17.8863   23.5887 H   0  0  0  0  0  0  0  0  0  0  0  0
   20.2380   17.3852   23.3040 H   0  0  0  0  0  0  0  0  0  0  0  0
   21.0297   18.8111   21.8422 C   0  0  0  0  0  0  0  0  0  0  0  0
   21.4673   18.0252   21.2111 H   0  0  0  0  0  0  0  0  0  0  0  0
   21.7450   19.6452   21.8308 H   0  0  0  0  0  0  0  0  0  0  0  0
   19.6929   19.2694   21.2136 C   0  0  0  0  0  0  0  0  0  0  0  0
   18.9392   18.4764   21.3184 H   0  0  0  0  0  0  0  0  0  0  0  0
   19.3130   20.1536   21.7407 H   0  0  0  0  0  0  0  0  0  0  0  0
   19.8584   19.6215   19.7198 C   0  0  0  0  0  0  0  0  0  0  0  0
   18.9038   19.9537   19.2915 H   0  0  0  0  0  0  0  0  0  0  0  0
   20.5882   20.4302   19.5832 H   0  0  0  0  0  0  0  0  0  0  0  0
   20.2003   18.7517   19.1437 H   0  0  0  0  0  0  0  0  0  0  0  0
  1  2  1  0  0  0  0
  1  3  1  0  0  0  0
  1  4  1  0  0  0  0
  1  5  1  0  0  0  0
  5  6  1  0  0  0  0
  5  7  1  0  0  0  0
  5  8  1  0  0  0  0
  8  9  1  0  0  0  0
  8 10  1  0  0  0  0
  8 11  1  0  0  0  0
 11 12  1  0  0  0  0
 11 13  1  0  0  0  0
 11 14  1  0  0  0  0
 14 15  1  0  0  0  0
 14 16  1  0  0  0  0
 14 17  1  0  0  0  0
 17 18  1  0  0  0  0
 17 19  1  0  0  0  0
 17 20  1  0  0  0  0
M  END
> <VM2 Rank>
20

> <Conf_Id>
220

> <Probability>
0.14

> <Sum Probability>
99.60

> <Delta G>
2.921

> <G>
29.928

> <E>
7.124

> <-TS>
22.804

> <U+W>
-8.972

> <U>
49.216

> <W>
-58.188

> <W(PB)>
-60.091

> <W(SA)>
1.903

> <Valence>
2.929

> <Coulomb>
46.006

> <VdW>
0.281

> <VdW6>
-4.909

> <VdW12>
5.190

> <Bond>
0.156

> <Angle>
0.974

> <Pdih>
1.799

> <Idih>
0.000

> <Tether>
0.000

$$$$
VeraChem MOL file


 20 19  0  0  0  0  0  0  0  0999 V2000     
   19.6643   17.9703   24.3957 N   0  3  0  0  0  0  0  0  0  0  0  0
   19.6754   17.4682   23.5042 H   0  0  0  0  0  0  0  0  0  0  0  0
   20.0278   17.3279   25.1077 H   0  0  0  0  0  0  0  0  0  0  0  0
   18.6828   18.1484   24.6305 H   0  0  0  0  0  0  0  0  0  0  0  0
   20.4697   19.2540   24.3337 C   0  0  0  0  0  0  0  0  0  0  0  0
   21.5152   19.0007   24.1384 H   0  0  0  0  0  0  0  0  0  0  0  0
   20.4128   19.7132   25.3243 H   0  0  0  0  0  0  0  0  0  0  0  0
   19.9712   20.2679   23.2825 C   0  0  0  0  0  0  0  0  0  0  0  0
   18.8745   20.3203   23.3005 H   0  0  0  0  0  0  0  0  0  0  0  0
   20.3247   21.2627   23.5847 H   0  0  0  0  0  0  0  0  0  0  0  0
   20.4761   20.0028   21.8408 C   0  0  0  0  0  0  0  0  0  0  0  0
   21.5748   20.0115   21.8303 H   0  0  0  0  0  0  0  0  0  0  0  0
   20.1583   20.8428   21.2076 H   0  0  0  0  0  0  0  0  0  0  0  0
   19.9648   18.6843   21.2144 C   0  0  0  0  0  0  0  0  0  0  0  0
   20.3950   17.8248   21.7436 H   0  0  0  0  0  0  0  0  0  0  0  0
   18.8725   18.6199   21.3183 H   0  0  0  0  0  0  0  0  0  0  0  0
   20.3419   18.5807   19.7210 C   0  0  0  0  0  0  0  0  0  0  0  0
   19.9806   17.6360   19.2943 H   0  0  0  0  0  0  0  0  0  0  0  0
   19.8982   19.4018   19.1429 H   0  0  0  0  0  0  0  0  0  0  0  0
   21.4307   18.6167   19.5854 H   0  0  0  0  0  0  0  0  0  0  0  0
  1  2  1  0  0  0  0
  1  3  1  0  0  0  0
  1  4  1  0  0  0  0
  1  5  1  0  0  0  0
  5  6  1  0  0  0  0
  5  7  1  0  0  0  0
  5  8  1  0  0  0  0
  8  9  1  0  0  0  0
  8 10  1  0  0  0  0
  8 11  1  0  0  0  0
 11 12  1  0  0  0  0
 11 13  1  0  0  0  0
 11 14  1  0  0  0  0
 14 15  1  0  0  0  0
 14 16  1  0  0  0  0
 14 17  1  0  0  0  0
 17 18  1  0  0  0  0
 17 19  1  0  0  0  0
 17 20  1  0  0  0  0
M  END
> <VM2 Rank>
21

> <Conf_Id>
234

> <Probability>
0.14

> <Sum Probability>
99.73

> <Delta G>
2.926

> <G>
29.933

> <E>
7.129

> <-TS>
22.804

> <U+W>
-8.967

> <U>
49.216

> <W>
-58.183

> <W(PB)>
-60.064

> <W(SA)>
1.881

> <Valence>
2.929

> <Coulomb>
46.006

> <VdW>
0.281

> <VdW6>
-4.909

> <VdW12>
5.190

> <Bond>
0.156

> <Angle>
0.974

> <Pdih>
1.799

> <Idih>
0.000

> <Tether>
0.000

$$$$
VeraChem MOL file


 20 19  0  0  0  0  0  0  0  0999 V2000     
   20.8336   18.6161   24.6870 N   0  3  0  0  0  0  0  0  0  0  0  0
   20.1091   18.2856   25.3320 H   0  0  0  0  0  0  0  0  0  0  0  0
   21.0983   17.8224   24.0965 H   0  0  0  0  0  0  0  0  0  0  0  0
   21.6534   18.8528   25.2556 H   0  0  0  0  0  0  0  0  0  0  0  0
   20.3596   19.7979   23.8634 C   0  0  0  0  0  0  0  0  0  0  0  0
   21.1855   20.1158   23.2252 H   0  0  0  0  0  0  0  0  0  0  0  0
   20.1377   20.6136   24.5569 H   0  0  0  0  0  0  0  0  0  0  0  0
   19.1060   19.5024   23.0126 C   0  0  0  0  0  0  0  0  0  0  0  0
   18.3043   19.1777   23.6891 H   0  0  0  0  0  0  0  0  0  0  0  0
   18.7513   20.4339   22.5519 H   0  0  0  0  0  0  0  0  0  0  0  0
   19.3052   18.4221   21.9155 C   0  0  0  0  0  0  0  0  0  0  0  0
   18.3193   18.0001   21.6760 H   0  0  0  0  0  0  0  0  0  0  0  0
   19.8962   17.5818   22.3020 H   0  0  0  0  0  0  0  0  0  0  0  0
   19.9221   18.9382   20.5899 C   0  0  0  0  0  0  0  0  0  0  0  0
   19.9264   18.1104   19.8669 H   0  0  0  0  0  0  0  0  0  0  0  0
   19.2751   19.7141   20.1573 H   0  0  0  0  0  0  0  0  0  0  0  0
   21.3615   19.4832   20.7196 C   0  0  0  0  0  0  0  0  0  0  0  0
   22.0097   18.7758   21.2527 H   0  0  0  0  0  0  0  0  0  0  0  0
   21.7965   19.6528   19.7262 H   0  0  0  0  0  0  0  0  0  0  0  0
   21.3789   20.4440   21.2475 H   0  0  0  0  0  0  0  0  0  0  0  0
  1  2  1  0  0  0  0
  1  3  1  0  0  0  0
  1  4  1  0  0  0  0
  1  5  1  0  0  0  0
  5  6  1  0  0  0  0
  5  7  1  0  0  0  0
  5  8  1  0  0  0  0
  8  9  1  0  0  0  0
  8 10  1  0  0  0  0
  8 11  1  0  0  0  0
 11 12  1  0  0  0  0
 11 13  1  0  0  0  0
 11 14  1  0  0  0  0
 14 15  1  0  0  0  0
 14 16  1  0  0  0  0
 14 17  1  0  0  0  0
 17 18  1  0  0  0  0
 17 19  1  0  0  0  0
 17 20  1  0  0  0  0
M  END
> <VM2 Rank>
22

> <Conf_Id>
76

> <Probability>
0.08

> <Sum Probability>
99.82

> <Delta G>
3.224

> <G>
30.231

> <E>
7.240

> <-TS>
22.991

> <U+W>
-8.856

> <U>
49.435

> <W>
-58.291

> <W(PB)>
-60.170

> <W(SA)>
1.879

> <Valence>
3.798

> <Coulomb>
45.253

> <VdW>
0.384

> <VdW6>
-5.595

> <VdW12>
5.979

> <Bond>
0.198

> <Angle>
1.369

> <Pdih>
2.230

> <Idih>
0.000

> <Tether>
0.000

$$$$
VeraChem MOL file


 20 19  0  0  0  0  0  0  0  0999 V2000     
   20.1981   19.9842   24.6855 N   0  3  0  0  0  0  0  0  0  0  0  0
   19.7626   20.6972   24.0933 H   0  0  0  0  0  0  0  0  0  0  0  0
   19.4778   19.6450   25.3306 H   0  0  0  0  0  0  0  0  0  0  0  0
   20.9072   20.4593   25.2536 H   0  0  0  0  0  0  0  0  0  0  0  0
   20.7961   18.8582   23.8645 C   0  0  0  0  0  0  0  0  0  0  0  0
   21.2758   18.1638   24.5598 H   0  0  0  0  0  0  0  0  0  0  0  0
   21.5723   19.2831   23.2261 H   0  0  0  0  0  0  0  0  0  0  0  0
   19.7624   18.0892   23.0143 C   0  0  0  0  0  0  0  0  0  0  0  0
   20.2458   17.2164   22.5558 H   0  0  0  0  0  0  0  0  0  0  0  0
   18.9966   17.6874   23.6909 H   0  0  0  0  0  0  0  0  0  0  0  0
   19.0664   18.9361   21.9149 C   0  0  0  0  0  0  0  0  0  0  0  0
   18.8053   19.9305   22.2991 H   0  0  0  0  0  0  0  0  0  0  0  0
   18.1082   18.4545   21.6755 H   0  0  0  0  0  0  0  0  0  0  0  0
   19.8600   19.0719   20.5898 C   0  0  0  0  0  0  0  0  0  0  0  0
   20.0359   18.0761   20.1593 H   0  0  0  0  0  0  0  0  0  0  0  0
   19.2309   19.6077   19.8651 H   0  0  0  0  0  0  0  0  0  0  0  0
   21.2049   19.8204   20.7192 C   0  0  0  0  0  0  0  0  0  0  0  0
   21.0820   20.7731   21.2503 H   0  0  0  0  0  0  0  0  0  0  0  0
   21.9498   19.2149   21.2489 H   0  0  0  0  0  0  0  0  0  0  0  0
   21.6160   20.0414   19.7256 H   0  0  0  0  0  0  0  0  0  0  0  0
  1  2  1  0  0  0  0
  1  3  1  0  0  0  0
  1  4  1  0  0  0  0
  1  5  1  0  0  0  0
  5  6  1  0  0  0  0
  5  7  1  0  0  0  0
  5  8  1  0  0  0  0
  8  9  1  0  0  0  0
  8 10  1  0  0  0  0
  8 11  1  0  0  0  0
 11 12  1  0  0  0  0
 11 13  1  0  0  0  0
 11 14  1  0  0  0  0
 14 15  1  0  0  0  0
 14 16  1  0  0  0  0
 14 17  1  0  0  0  0
 17 18  1  0  0  0  0
 17 19  1  0  0  0  0
 17 20  1  0  0  0  0
M  END
> <VM2 Rank>
23

> <Conf_Id>
265

> <Probability>
0.08

> <Sum Probability>
99.89

> <Delta G>
3.251

> <G>
30.258

> <E>
7.267

> <-TS>
22.991

> <U+W>
-8.829

> <U>
49.434

> <W>
-58.263

> <W(PB)>
-60.125

> <W(SA)>
1.862

> <Valence>
3.798

> <Coulomb>
45.253

> <VdW>
0.384

> <VdW6>
-5.596

> <VdW12>
5.979

> <Bond>
0.198

> <Angle>
1.369

> <Pdih>
2.230

> <Idih>
0.000

> <Tether>
0.000

$$$$
VeraChem MOL file


 20 19  0  0  0  0  0  0  0  0999 V2000     
   21.1752   18.9005   24.3536 N   0  3  0  0  0  0  0  0  0  0  0  0
   21.8925   19.4268   24.8634 H   0  0  0  0  0  0  0  0  0  0  0  0
   20.8477   18.1583   24.9797 H   0  0  0  0  0  0  0  0  0  0  0  0
   21.6386   18.4469   23.5609 H   0  0  0  0  0  0  0  0  0  0  0  0
   20.0384   19.7935   23.8964 C   0  0  0  0  0  0  0  0  0  0  0  0
   20.4522   20.5824   23.2648 H   0  0  0  0  0  0  0  0  0  0  0  0
   19.6101   20.2666   24.7843 H   0  0  0  0  0  0  0  0  0  0  0  0
   18.9281   19.0437   23.1350 C   0  0  0  0  0  0  0  0  0  0  0  0
   18.4605   18.3238   23.8197 H   0  0  0  0  0  0  0  0  0  0  0  0
   18.1403   19.7604   22.8679 H   0  0  0  0  0  0  0  0  0  0  0  0
   19.3903   18.2923   21.8576 C   0  0  0  0  0  0  0  0  0  0  0  0
   18.5195   17.7460   21.4693 H   0  0  0  0  0  0  0  0  0  0  0  0
   20.1294   17.5197   22.1077 H   0  0  0  0  0  0  0  0  0  0  0  0
   19.9245   19.1995   20.7188 C   0  0  0  0  0  0  0  0  0  0  0  0
   19.7633   18.6807   19.7633 H   0  0  0  0  0  0  0  0  0  0  0  0
   19.3352   20.1253   20.6616 H   0  0  0  0  0  0  0  0  0  0  0  0
   21.4316   19.5304   20.8265 C   0  0  0  0  0  0  0  0  0  0  0  0
   22.0337   18.6153   20.8949 H   0  0  0  0  0  0  0  0  0  0  0  0
   21.7643   20.0786   19.9356 H   0  0  0  0  0  0  0  0  0  0  0  0
   21.6579   20.1580   21.6945 H   0  0  0  0  0  0  0  0  0  0  0  0
  1  2  1  0  0  0  0
  1  3  1  0  0  0  0
  1  4  1  0  0  0  0
  1  5  1  0  0  0  0
  5  6  1  0  0  0  0
  5  7  1  0  0  0  0
  5  8  1  0  0  0  0
  8  9  1  0  0  0  0
  8 10  1  0  0  0  0
  8 11  1  0  0  0  0
 11 12  1  0  0  0  0
 11 13  1  0  0  0  0
 11 14  1  0  0  0  0
 14 15  1  0  0  0  0
 14 16  1  0  0  0  0
 14 17  1  0  0  0  0
 17 18  1  0  0  0  0
 17 19  1  0  0  0  0
 17 20  1  0  0  0  0
M  END
> <VM2 Rank>
24

> <Conf_Id>
256

> <Probability>
0.04

> <Sum Probability>
99.93

> <Delta G>
3.674

> <G>
30.681

> <E>
7.492

> <-TS>
23.189

> <U+W>
-8.604

> <U>
49.668

> <W>
-58.272

> <W(PB)>
-60.122

> <W(SA)>
1.851

> <Valence>
3.948

> <Coulomb>
45.465

> <VdW>
0.254

> <VdW6>
-5.832

> <VdW12>
6.086

> <Bond>
0.203

> <Angle>
1.495

> <Pdih>
2.250

> <Idih>
0.000

> <Tether>
0.000

$$$$
VeraChem MOL file


 20 19  0  0  0  0  0  0  0  0999 V2000     
   20.6360   20.0611   24.3524 N   0  3  0  0  0  0  0  0  0  0  0  0
   19.8571   20.2909   24.9773 H   0  0  0  0  0  0  0  0  0  0  0  0
   21.5004   20.2707   24.8625 H   0  0  0  0  0  0  0  0  0  0  0  0
   20.5891   20.7064   23.5584 H   0  0  0  0  0  0  0  0  0  0  0  0
   20.5855   18.6156   23.8979 C   0  0  0  0  0  0  0  0  0  0  0  0
   20.6699   17.9849   24.7870 H   0  0  0  0  0  0  0  0  0  0  0  0
   21.4559   18.4217   23.2674 H   0  0  0  0  0  0  0  0  0  0  0  0
   19.2971   18.2494   23.1359 C   0  0  0  0  0  0  0  0  0  0  0  0
   19.3367   17.1846   22.8709 H   0  0  0  0  0  0  0  0  0  0  0  0
   18.4447   18.3578   23.8196 H   0  0  0  0  0  0  0  0  0  0  0  0
   19.0223   19.0848   21.8566 C   0  0  0  0  0  0  0  0  0  0  0  0
   18.9086   20.1484   22.1046 H   0  0  0  0  0  0  0  0  0  0  0  0
   18.0434   18.7711   21.4681 H   0  0  0  0  0  0  0  0  0  0  0  0
   20.0610   18.9055   20.7191 C   0  0  0  0  0  0  0  0  0  0  0  0
   20.3883   17.8578   20.6642 H   0  0  0  0  0  0  0  0  0  0  0  0
   19.5614   19.1151   19.7628 H   0  0  0  0  0  0  0  0  0  0  0  0
   21.2861   19.8436   20.8261 C   0  0  0  0  0  0  0  0  0  0  0  0
   21.9204   19.7424   19.9359 H   0  0  0  0  0  0  0  0  0  0  0  0
   20.9753   20.8942   20.8922 H   0  0  0  0  0  0  0  0  0  0  0  0
   21.9109   19.6133   21.6950 H   0  0  0  0  0  0  0  0  0  0  0  0
  1  2  1  0  0  0  0
  1  3  1  0  0  0  0
  1  4  1  0  0  0  0
  1  5  1  0  0  0  0
  5  6  1  0  0  0  0
  5  7  1  0  0  0  0
  5  8  1  0  0  0  0
  8  9  1  0  0  0  0
  8 10  1  0  0  0  0
  8 11  1  0  0  0  0
 11 12  1  0  0  0  0
 11 13  1  0  0  0  0
 11 14  1  0  0  0  0
 14 15  1  0  0  0  0
 14 16  1  0  0  0  0
 14 17  1  0  0  0  0
 17 18  1  0  0  0  0
 17 19  1  0  0  0  0
 17 20  1  0  0  0  0
M  END
> <VM2 Rank>
25

> <Conf_Id>
298

> <Probability>
0.03

> <Sum Probability>
99.96

> <Delta G>
3.801

> <G>
30.808

> <E>
7.620

> <-TS>
23.188

> <U+W>
-8.476

> <U>
49.667

> <W>
-58.144

> <W(PB)>
-59.997

> <W(SA)>
1.853

> <Valence>
3.949

> <Coulomb>
45.464

> <VdW>
0.254

> <VdW6>
-5.831

> <VdW12>
6.085

> <Bond>
0.203

> <Angle>
1.495

> <Pdih>
2.250

> <Idih>
0.000

> <Tether>
0.000

$$$$
VeraChem MOL file


 20 19  0  0  0  0  0  0  0  0999 V2000     
   18.8234   19.0117   24.0372 N   0  3  0  0  0  0  0  0  0  0  0  0
   18.4408   19.9620   24.0585 H   0  0  0  0  0  0  0  0  0  0  0  0
   18.5488   18.5948   23.1434 H   0  0  0  0  0  0  0  0  0  0  0  0
   18.3506   18.4838   24.7784 H   0  0  0  0  0  0  0  0  0  0  0  0
   20.3289   19.0091   24.2171 C   0  0  0  0  0  0  0  0  0  0  0  0
   20.6695   17.9721   24.2798 H   0  0  0  0  0  0  0  0  0  0  0  0
   20.5370   19.4918   25.1758 H   0  0  0  0  0  0  0  0  0  0  0  0
   21.1031   19.7452   23.1034 C   0  0  0  0  0  0  0  0  0  0  0  0
   20.6078   20.6935   22.8593 H   0  0  0  0  0  0  0  0  0  0  0  0
   22.0851   20.0215   23.5097 H   0  0  0  0  0  0  0  0  0  0  0  0
   21.3443   18.8998   21.8238 C   0  0  0  0  0  0  0  0  0  0  0  0
   21.9225   18.0055   22.0942 H   0  0  0  0  0  0  0  0  0  0  0  0
   21.9868   19.4747   21.1427 H   0  0  0  0  0  0  0  0  0  0  0  0
   20.0773   18.4562   21.0499 C   0  0  0  0  0  0  0  0  0  0  0  0
   20.3937   17.8679   20.1770 H   0  0  0  0  0  0  0  0  0  0  0  0
   19.4763   17.7716   21.6613 H   0  0  0  0  0  0  0  0  0  0  0  0
   19.2110   19.6380   20.5566 C   0  0  0  0  0  0  0  0  0  0  0  0
   19.7980   20.3159   19.9234 H   0  0  0  0  0  0  0  0  0  0  0  0
   18.3655   19.2726   19.9595 H   0  0  0  0  0  0  0  0  0  0  0  0
   18.8012   20.2217   21.3891 H   0  0  0  0  0  0  0  0  0  0  0  0
  1  2  1  0  0  0  0
  1  3  1  0  0  0  0
  1  4  1  0  0  0  0
  1  5  1  0  0  0  0
  5  6  1  0  0  0  0
  5  7  1  0  0  0  0
  5  8  1  0  0  0  0
  8  9  1  0  0  0  0
  8 10  1  0  0  0  0
  8 11  1  0  0  0  0
 11 12  1  0  0  0  0
 11 13  1  0  0  0  0
 11 14  1  0  0  0  0
 14 15  1  0  0  0  0
 14 16  1  0  0  0  0
 14 17  1  0  0  0  0
 17 18  1  0  0  0  0
 17 19  1  0  0  0  0
 17 20  1  0  0  0  0
M  END
> <VM2 Rank>
26

> <Conf_Id>
90

> <Probability>
0.02

> <Sum Probability>
99.98

> <Delta G>
4.120

> <G>
31.128

> <E>
7.724

> <-TS>
23.403

> <U+W>
-8.372

> <U>
49.568

> <W>
-57.940

> <W(PB)>
-59.794

> <W(SA)>
1.854

> <Valence>
3.368

> <Coulomb>
46.021

> <VdW>
0.179

> <VdW6>
-6.025

> <VdW12>
6.204

> <Bond>
0.197

> <Angle>
1.442

> <Pdih>
1.729

> <Idih>
0.000

> <Tether>
0.000

$$$$
VeraChem MOL file


 20 19  0  0  0  0  0  0  0  0999 V2000     
   19.2045   18.1916   24.0384 N   0  3  0  0  0  0  0  0  0  0  0  0
   19.6842   17.2864   24.0621 H   0  0  0  0  0  0  0  0  0  0  0  0
   18.4953   18.1722   24.7788 H   0  0  0  0  0  0  0  0  0  0  0  0
   18.7097   18.2485   23.1439 H   0  0  0  0  0  0  0  0  0  0  0  0
   20.1731   19.3443   24.2166 C   0  0  0  0  0  0  0  0  0  0  0  0
   20.6753   19.1943   25.1762 H   0  0  0  0  0  0  0  0  0  0  0  0
   19.6000   20.2734   24.2767 H   0  0  0  0  0  0  0  0  0  0  0  0
   21.2360   19.4590   23.1038 C   0  0  0  0  0  0  0  0  0  0  0  0
   22.0801   20.0321   23.5097 H   0  0  0  0  0  0  0  0  0  0  0  0
   21.6415   18.4683   22.8621 H   0  0  0  0  0  0  0  0  0  0  0  0
   20.7468   20.1859   21.8222 C   0  0  0  0  0  0  0  0  0  0  0  0
   21.6011   20.3048   21.1416 H   0  0  0  0  0  0  0  0  0  0  0  0
   20.4359   21.2052   22.0903 H   0  0  0  0  0  0  0  0  0  0  0  0
   19.5913   19.5021   21.0486 C   0  0  0  0  0  0  0  0  0  0  0  0
   18.6800   19.4855   21.6593 H   0  0  0  0  0  0  0  0  0  0  0  0
   19.3464   20.1217   20.1744 H   0  0  0  0  0  0  0  0  0  0  0  0
   19.9363   18.0771   20.5584 C   0  0  0  0  0  0  0  0  0  0  0  0
   20.8335   18.0873   19.9259 H   0  0  0  0  0  0  0  0  0  0  0  0
   20.1176   17.3890   21.3924 H   0  0  0  0  0  0  0  0  0  0  0  0
   19.1123   17.6652   19.9614 H   0  0  0  0  0  0  0  0  0  0  0  0
  1  2  1  0  0  0  0
  1  3  1  0  0  0  0
  1  4  1  0  0  0  0
  1  5  1  0  0  0  0
  5  6  1  0  0  0  0
  5  7  1  0  0  0  0
  5  8  1  0  0  0  0
  8  9  1  0  0  0  0
  8 10  1  0  0  0  0
  8 11  1  0  0  0  0
 11 12  1  0  0  0  0
 11 13  1  0  0  0  0
 11 14  1  0  0  0  0
 14 15  1  0  0  0  0
 14 16  1  0  0  0  0
 14 17  1  0  0  0  0
 17 18  1  0  0  0  0
 17 19  1  0  0  0  0
 17 20  1  0  0  0  0
M  END
> <VM2 Rank>
27

> <Conf_Id>
263

> <Probability>
0.02

> <Sum Probability>
100.00

> <Delta G>
4.190

> <G>
31.197

> <E>
7.794

> <-TS>
23.403

> <U+W>
-8.302

> <U>
49.568

> <W>
-57.870

> <W(PB)>
-59.720

> <W(SA)>
1.850

> <Valence>
3.368

> <Coulomb>
46.021

> <VdW>
0.179

> <VdW6>
-6.024

> <VdW12>
6.203

> <Bond>
0.196

> <Angle>
1.442

> <Pdih>
1.730

> <Idih>
0.000

> <Tether>
0.000

$$$$
VeraChem MOL file


 20 19  0  0  0  0  0  0  0  0999 V2000     
   20.3761   17.8730   24.0431 N   0  3  0  0  0  0  0  0  0  0  0  0
   21.1248   17.4070   24.5665 H   0  0  0  0  0  0  0  0  0  0  0  0
   19.4904   17.5901   24.4741 H   0  0  0  0  0  0  0  0  0  0  0  0
   20.3867   17.4941   23.0912 H   0  0  0  0  0  0  0  0  0  0  0  0
   20.5442   19.3801   24.0402 C   0  0  0  0  0  0  0  0  0  0  0  0
   21.5288   19.6225   23.6315 H   0  0  0  0  0  0  0  0  0  0  0  0
   20.5205   19.7061   25.0836 H   0  0  0  0  0  0  0  0  0  0  0  0
   19.4509   20.1310   23.2533 C   0  0  0  0  0  0  0  0  0  0  0  0
   18.4688   19.6889   23.4672 H   0  0  0  0  0  0  0  0  0  0  0  0
   19.4066   21.1575   23.6408 H   0  0  0  0  0  0  0  0  0  0  0  0
   19.6784   20.2135   21.7199 C   0  0  0  0  0  0  0  0  0  0  0  0
   20.5977   20.7767   21.5075 H   0  0  0  0  0  0  0  0  0  0  0  0
   18.8616   20.8162   21.2989 H   0  0  0  0  0  0  0  0  0  0  0  0
   19.7037   18.8540   20.9759 C   0  0  0  0  0  0  0  0  0  0  0  0
   19.0787   18.1178   21.4990 H   0  0  0  0  0  0  0  0  0  0  0  0
   19.2395   18.9867   19.9884 H   0  0  0  0  0  0  0  0  0  0  0  0
   21.1347   18.3084   20.7556 C   0  0  0  0  0  0  0  0  0  0  0  0
   21.1029   17.3210   20.2768 H   0  0  0  0  0  0  0  0  0  0  0  0
   21.7052   18.9763   20.0970 H   0  0  0  0  0  0  0  0  0  0  0  0
   21.6959   18.2130   21.6913 H   0  0  0  0  0  0  0  0  0  0  0  0
  1  2  1  0  0  0  0
  1  3  1  0  0  0  0
  1  4  1  0  0  0  0
  1  5  1  0  0  0  0
  5  6  1  0  0  0  0
  5  7  1  0  0  0  0
  5  8  1  0  0  0  0
  8  9  1  0  0  0  0
  8 10  1  0  0  0  0
  8 11  1  0  0  0  0
 11 12  1  0  0  0  0
 11 13  1  0  0  0  0
 11 14  1  0  0  0  0
 14 15  1  0  0  0  0
 14 16  1  0  0  0  0
 14 17  1  0  0  0  0
 17 18  1  0  0  0  0
 17 19  1  0  0  0  0
 17 20  1  0  0  0  0
M  END
> <VM2 Rank>
28

> <Conf_Id>
316

> <Probability>
0.00

> <Sum Probability>
100.00

> <Delta G>
6.053

> <G>
33.060

> <E>
9.672

> <-TS>
23.389

> <U+W>
-6.425

> <U>
51.541

> <W>
-57.966

> <W(PB)>
-59.821

> <W(SA)>
1.855

> <Valence>
5.347

> <Coulomb>
45.870

> <VdW>
0.325

> <VdW6>
-6.161

> <VdW12>
6.486

> <Bond>
0.201

> <Angle>
1.484

> <Pdih>
3.662

> <Idih>
0.000

> <Tether>
0.000

$$$$
VeraChem MOL file


 20 19  0  0  0  0  0  0  0  0999 V2000     
   19.3356   20.1127   24.0404 N   0  3  0  0  0  0  0  0  0  0  0  0
   18.5478   19.6193   24.4718 H   0  0  0  0  0  0  0  0  0  0  0  0
   19.4619   20.9865   24.5621 H   0  0  0  0  0  0  0  0  0  0  0  0
   19.0537   20.3633   23.0877 H   0  0  0  0  0  0  0  0  0  0  0  0
   20.5957   19.2691   24.0403 C   0  0  0  0  0  0  0  0  0  0  0  0
   20.8287   19.0428   25.0844 H   0  0  0  0  0  0  0  0  0  0  0  0
   21.4164   19.8644   23.6311 H   0  0  0  0  0  0  0  0  0  0  0  0
   20.4651   17.9477   23.2559 C   0  0  0  0  0  0  0  0  0  0  0  0
   21.2206   17.2525   23.6455 H   0  0  0  0  0  0  0  0  0  0  0  0
   19.4936   17.4828   23.4699 H   0  0  0  0  0  0  0  0  0  0  0  0
   20.6763   18.0653   21.7225 C   0  0  0  0  0  0  0  0  0  0  0  0
   20.6105   17.0516   21.3035 H   0  0  0  0  0  0  0  0  0  0  0  0
   21.6999   18.4041   21.5104 H   0  0  0  0  0  0  0  0  0  0  0  0
   19.6545   18.9601   20.9757 C   0  0  0  0  0  0  0  0  0  0  0  0
   19.4575   18.5177   19.9889 H   0  0  0  0  0  0  0  0  0  0  0  0
   18.6882   18.9582   21.4979 H   0  0  0  0  0  0  0  0  0  0  0  0
   20.1607   20.4051   20.7531 C   0  0  0  0  0  0  0  0  0  0  0  0
   19.3861   21.0166   20.2723 H   0  0  0  0  0  0  0  0  0  0  0  0
   20.4488   20.8974   21.6881 H   0  0  0  0  0  0  0  0  0  0  0  0
   21.0397   20.4090   20.0954 H   0  0  0  0  0  0  0  0  0  0  0  0
  1  2  1  0  0  0  0
  1  3  1  0  0  0  0
  1  4  1  0  0  0  0
  1  5  1  0  0  0  0
  5  6  1  0  0  0  0
  5  7  1  0  0  0  0
  5  8  1  0  0  0  0
  8  9  1  0  0  0  0
  8 10  1  0  0  0  0
  8 11  1  0  0  0  0
 11 12  1  0  0  0  0
 11 13  1  0  0  0  0
 11 14  1  0  0  0  0
 14 15  1  0  0  0  0
 14 16  1  0  0  0  0
 14 17  1  0  0  0  0
 17 18  1  0  0  0  0
 17 19  1  0  0  0  0
 17 20  1  0  0  0  0
M  END
> <VM2 Rank>
29

> <Conf_Id>
122

> <Probability>
0.00

> <Sum Probability>
100.00

> <Delta G>
6.065

> <G>
33.073

> <E>
9.684

> <-TS>
23.388

> <U+W>
-6.412

> <U>
51.541

> <W>
-57.954

> <W(PB)>
-59.811

> <W(SA)>
1.857

> <Valence>
5.347

> <Coulomb>
45.870

> <VdW>
0.325

> <VdW6>
-6.161

> <VdW12>
6.486

> <Bond>
0.201

> <Angle>
1.484

> <Pdih>
3.662

> <Idih>
0.000

> <Tether>
0.000

$$$$
