VeraChem MOL file


 25 24  0  0  0  0  0  0  0  0999 V2000     
   20.1601   19.3401   27.8084 C   0  0  0  0  0  0  0  0  0  0  0  0
   21.2157   19.7050   28.2872 O   0  5  0  0  0  0  0  0  0  0  0  0
   19.0777   19.5690   28.3112 O   0  0  0  0  0  0  0  0  0  0  0  0
   20.1941   18.5724   26.4918 C   0  0  0  0  0  0  0  0  0  0  0  0
   19.3547   17.8667   26.4872 H   0  0  0  0  0  0  0  0  0  0  0  0
   21.1164   17.9795   26.4670 H   0  0  0  0  0  0  0  0  0  0  0  0
   20.1206   19.4991   25.2533 C   0  0  0  0  0  0  0  0  0  0  0  0
   19.1984   20.0950   25.3002 H   0  0  0  0  0  0  0  0  0  0  0  0
   20.9600   20.2078   25.2799 H   0  0  0  0  0  0  0  0  0  0  0  0
   20.1566   18.6986   23.9334 C   0  0  0  0  0  0  0  0  0  0  0  0
   19.3171   17.9902   23.9106 H   0  0  0  0  0  0  0  0  0  0  0  0
   21.0790   18.1032   23.8902 H   0  0  0  0  0  0  0  0  0  0  0  0
   20.0829   19.6250   22.7006 C   0  0  0  0  0  0  0  0  0  0  0  0
   19.1606   20.2204   22.7437 H   0  0  0  0  0  0  0  0  0  0  0  0
   20.9223   20.3334   22.7232 H   0  0  0  0  0  0  0  0  0  0  0  0
   20.1189   18.8252   21.3804 C   0  0  0  0  0  0  0  0  0  0  0  0
   19.2795   18.1167   21.3574 H   0  0  0  0  0  0  0  0  0  0  0  0
   21.0412   18.2297   21.3370 H   0  0  0  0  0  0  0  0  0  0  0  0
   20.0451   19.7510   20.1480 C   0  0  0  0  0  0  0  0  0  0  0  0
   19.1228   20.3470   20.1870 H   0  0  0  0  0  0  0  0  0  0  0  0
   20.8844   20.4600   20.1665 H   0  0  0  0  0  0  0  0  0  0  0  0
   20.0813   18.9486   18.8317 C   0  0  0  0  0  0  0  0  0  0  0  0
   19.2340   18.2529   18.7723 H   0  0  0  0  0  0  0  0  0  0  0  0
   20.0280   19.6221   17.9664 H   0  0  0  0  0  0  0  0  0  0  0  0
   21.0089   18.3668   18.7516 H   0  0  0  0  0  0  0  0  0  0  0  0
  1  2  1  0  0  0  0
  1  3  2  0  0  0  0
  1  4  1  0  0  0  0
  4  5  1  0  0  0  0
  4  6  1  0  0  0  0
  4  7  1  0  0  0  0
  7  8  1  0  0  0  0
  7  9  1  0  0  0  0
  7 10  1  0  0  0  0
 10 11  1  0  0  0  0
 10 12  1  0  0  0  0
 10 13  1  0  0  0  0
 13 14  1  0  0  0  0
 13 15  1  0  0  0  0
 13 16  1  0  0  0  0
 16 17  1  0  0  0  0
 16 18  1  0  0  0  0
 16 19  1  0  0  0  0
 19 20  1  0  0  0  0
 19 21  1  0  0  0  0
 19 22  1  0  0  0  0
 22 23  1  0  0  0  0
 22 24  1  0  0  0  0
 22 25  1  0  0  0  0
M  END
> <VM2 Rank>
1

> <Conf_Id>
348

> <Probability>
23.52

> <Sum Probability>
23.52

> <Delta G>
0.000

> <G>
-7.962

> <E>
-32.361

> <-TS>
24.399

> <U+W>
-52.928

> <U>
5.617

> <W>
-58.544

> <W(PB)>
-61.064

> <W(SA)>
2.520

> <Valence>
7.531

> <Coulomb>
-2.818

> <VdW>
0.904

> <VdW6>
-7.640

> <VdW12>
8.544

> <Bond>
0.115

> <Angle>
2.271

> <Pdih>
5.144

> <Idih>
0.001

> <Tether>
0.000

$$$$
VeraChem MOL file


 25 24  0  0  0  0  0  0  0  0999 V2000     
   19.8606   19.1637   27.5407 C   0  0  0  0  0  0  0  0  0  0  0  0
   20.6741   18.7866   28.3609 O   0  5  0  0  0  0  0  0  0  0  0  0
   18.8684   19.8062   27.8228 O   0  0  0  0  0  0  0  0  0  0  0  0
   20.1114   18.8330   26.0738 C   0  0  0  0  0  0  0  0  0  0  0  0
   19.1367   18.6971   25.5919 H   0  0  0  0  0  0  0  0  0  0  0  0
   20.6353   17.8709   26.0269 H   0  0  0  0  0  0  0  0  0  0  0  0
   20.9344   19.9269   25.3450 C   0  0  0  0  0  0  0  0  0  0  0  0
   20.3788   20.8748   25.3594 H   0  0  0  0  0  0  0  0  0  0  0  0
   21.8623   20.1029   25.9068 H   0  0  0  0  0  0  0  0  0  0  0  0
   21.2999   19.5571   23.8877 C   0  0  0  0  0  0  0  0  0  0  0  0
   21.8645   18.6147   23.8778 H   0  0  0  0  0  0  0  0  0  0  0  0
   21.9750   20.3280   23.4915 H   0  0  0  0  0  0  0  0  0  0  0  0
   20.0710   19.4383   22.9569 C   0  0  0  0  0  0  0  0  0  0  0  0
   19.4212   18.6214   23.2963 H   0  0  0  0  0  0  0  0  0  0  0  0
   19.4797   20.3627   23.0099 H   0  0  0  0  0  0  0  0  0  0  0  0
   20.4876   19.1765   21.4933 C   0  0  0  0  0  0  0  0  0  0  0  0
   21.0823   18.2543   21.4407 H   0  0  0  0  0  0  0  0  0  0  0  0
   21.1330   19.9937   21.1430 H   0  0  0  0  0  0  0  0  0  0  0  0
   19.2627   19.0534   20.5626 C   0  0  0  0  0  0  0  0  0  0  0  0
   18.6155   18.2354   20.9082 H   0  0  0  0  0  0  0  0  0  0  0  0
   18.6661   19.9749   20.6117 H   0  0  0  0  0  0  0  0  0  0  0  0
   19.6828   18.7922   19.1022 C   0  0  0  0  0  0  0  0  0  0  0  0
   20.2549   17.8588   19.0190 H   0  0  0  0  0  0  0  0  0  0  0  0
   18.8002   18.7075   18.4550 H   0  0  0  0  0  0  0  0  0  0  0  0
   20.3059   19.6115   18.7202 H   0  0  0  0  0  0  0  0  0  0  0  0
  1  2  1  0  0  0  0
  1  3  2  0  0  0  0
  1  4  1  0  0  0  0
  4  5  1  0  0  0  0
  4  6  1  0  0  0  0
  4  7  1  0  0  0  0
  7  8  1  0  0  0  0
  7  9  1  0  0  0  0
  7 10  1  0  0  0  0
 10 11  1  0  0  0  0
 10 12  1  0  0  0  0
 10 13  1  0  0  0  0
 13 14  1  0  0  0  0
 13 15  1  0  0  0  0
 13 16  1  0  0  0  0
 16 17  1  0  0  0  0
 16 18  1  0  0  0  0
 16 19  1  0  0  0  0
 19 20  1  0  0  0  0
 19 21  1  0  0  0  0
 19 22  1  0  0  0  0
 22 23  1  0  0  0  0
 22 24  1  0  0  0  0
 22 25  1  0  0  0  0
M  END
> <VM2 Rank>
2

> <Conf_Id>
821

> <Probability>
5.75

> <Sum Probability>
29.27

> <Delta G>
0.840

> <G>
-7.123

> <E>
-31.631

> <-TS>
24.509

> <U+W>
-52.199

> <U>
6.575

> <W>
-58.774

> <W(PB)>
-61.317

> <W(SA)>
2.543

> <Valence>
8.051

> <Coulomb>
-2.490

> <VdW>
1.015

> <VdW6>
-8.339

> <VdW12>
9.354

> <Bond>
0.157

> <Angle>
2.513

> <Pdih>
5.379

> <Idih>
0.001

> <Tether>
0.000

$$$$
VeraChem MOL file


 25 24  0  0  0  0  0  0  0  0999 V2000     
   20.1315   19.7075   27.5208 C   0  0  0  0  0  0  0  0  0  0  0  0
   20.9464   19.3334   28.3409 O   0  5  0  0  0  0  0  0  0  0  0  0
   19.0293   20.1290   27.8109 O   0  0  0  0  0  0  0  0  0  0  0  0
   20.5035   19.6201   26.0450 C   0  0  0  0  0  0  0  0  0  0  0  0
   21.5851   19.7774   25.9570 H   0  0  0  0  0  0  0  0  0  0  0  0
   20.0104   20.4507   25.5276 H   0  0  0  0  0  0  0  0  0  0  0  0
   20.1061   18.2641   25.4059 C   0  0  0  0  0  0  0  0  0  0  0  0
   20.5414   17.4515   26.0039 H   0  0  0  0  0  0  0  0  0  0  0  0
   19.0158   18.1387   25.4596 H   0  0  0  0  0  0  0  0  0  0  0  0
   20.5787   18.1093   23.9408 C   0  0  0  0  0  0  0  0  0  0  0  0
   20.3594   17.0848   23.6103 H   0  0  0  0  0  0  0  0  0  0  0  0
   21.6702   18.2246   23.8921 H   0  0  0  0  0  0  0  0  0  0  0  0
   19.9055   19.1060   22.9691 C   0  0  0  0  0  0  0  0  0  0  0  0
   18.8136   19.0254   23.0589 H   0  0  0  0  0  0  0  0  0  0  0  0
   20.1752   20.1347   23.2409 H   0  0  0  0  0  0  0  0  0  0  0  0
   20.3226   18.8453   21.5054 C   0  0  0  0  0  0  0  0  0  0  0  0
   20.0498   17.8194   21.2226 H   0  0  0  0  0  0  0  0  0  0  0  0
   21.4150   18.9219   21.4162 H   0  0  0  0  0  0  0  0  0  0  0  0
   19.6554   19.8415   20.5338 C   0  0  0  0  0  0  0  0  0  0  0  0
   18.5624   19.7667   20.6195 H   0  0  0  0  0  0  0  0  0  0  0  0
   19.9278   20.8691   20.8118 H   0  0  0  0  0  0  0  0  0  0  0  0
   20.0741   19.5778   19.0735 C   0  0  0  0  0  0  0  0  0  0  0  0
   19.5908   20.2946   18.3969 H   0  0  0  0  0  0  0  0  0  0  0  0
   21.1608   19.6771   18.9524 H   0  0  0  0  0  0  0  0  0  0  0  0
   19.7850   18.5666   18.7584 H   0  0  0  0  0  0  0  0  0  0  0  0
  1  2  1  0  0  0  0
  1  3  2  0  0  0  0
  1  4  1  0  0  0  0
  4  5  1  0  0  0  0
  4  6  1  0  0  0  0
  4  7  1  0  0  0  0
  7  8  1  0  0  0  0
  7  9  1  0  0  0  0
  7 10  1  0  0  0  0
 10 11  1  0  0  0  0
 10 12  1  0  0  0  0
 10 13  1  0  0  0  0
 13 14  1  0  0  0  0
 13 15  1  0  0  0  0
 13 16  1  0  0  0  0
 16 17  1  0  0  0  0
 16 18  1  0  0  0  0
 16 19  1  0  0  0  0
 19 20  1  0  0  0  0
 19 21  1  0  0  0  0
 19 22  1  0  0  0  0
 22 23  1  0  0  0  0
 22 24  1  0  0  0  0
 22 25  1  0  0  0  0
M  END
> <VM2 Rank>
3

> <Conf_Id>
832

> <Probability>
5.57

> <Sum Probability>
34.84

> <Delta G>
0.859

> <G>
-7.104

> <E>
-31.612

> <-TS>
24.508

> <U+W>
-52.180

> <U>
6.575

> <W>
-58.755

> <W(PB)>
-61.293

> <W(SA)>
2.538

> <Valence>
8.050

> <Coulomb>
-2.490

> <VdW>
1.015

> <VdW6>
-8.339

> <VdW12>
9.354

> <Bond>
0.157

> <Angle>
2.513

> <Pdih>
5.379

> <Idih>
0.001

> <Tether>
0.000

$$$$
VeraChem MOL file


 25 24  0  0  0  0  0  0  0  0999 V2000     
   20.1304   19.1678   27.7051 C   0  0  0  0  0  0  0  0  0  0  0  0
   21.2276   19.2434   28.2218 O   0  5  0  0  0  0  0  0  0  0  0  0
   19.2271   18.4812   28.1399 O   0  0  0  0  0  0  0  0  0  0  0  0
   19.8807   19.9606   26.4271 C   0  0  0  0  0  0  0  0  0  0  0  0
   20.4731   20.8821   26.4766 H   0  0  0  0  0  0  0  0  0  0  0  0
   18.8243   20.2546   26.4096 H   0  0  0  0  0  0  0  0  0  0  0  0
   20.2355   19.1650   25.1468 C   0  0  0  0  0  0  0  0  0  0  0  0
   21.2925   18.8669   25.1860 H   0  0  0  0  0  0  0  0  0  0  0  0
   19.6440   18.2393   25.1192 H   0  0  0  0  0  0  0  0  0  0  0  0
   19.9739   19.9884   23.8671 C   0  0  0  0  0  0  0  0  0  0  0  0
   20.5655   20.9137   23.8990 H   0  0  0  0  0  0  0  0  0  0  0  0
   18.9167   20.2854   23.8311 H   0  0  0  0  0  0  0  0  0  0  0  0
   20.3287   19.1927   22.5924 C   0  0  0  0  0  0  0  0  0  0  0  0
   21.3866   18.8985   22.6261 H   0  0  0  0  0  0  0  0  0  0  0  0
   19.7386   18.2673   22.5702 H   0  0  0  0  0  0  0  0  0  0  0  0
   20.0627   20.0173   21.3117 C   0  0  0  0  0  0  0  0  0  0  0  0
   20.6043   20.9705   21.3814 H   0  0  0  0  0  0  0  0  0  0  0  0
   18.9954   20.2698   21.2490 H   0  0  0  0  0  0  0  0  0  0  0  0
   20.5008   19.2976   20.0148 C   0  0  0  0  0  0  0  0  0  0  0  0
   20.3879   19.9922   19.1710 H   0  0  0  0  0  0  0  0  0  0  0  0
   21.5696   19.0492   20.0712 H   0  0  0  0  0  0  0  0  0  0  0  0
   19.6855   18.0200   19.7193 C   0  0  0  0  0  0  0  0  0  0  0  0
   18.6101   18.2385   19.6879 H   0  0  0  0  0  0  0  0  0  0  0  0
   19.9729   17.5974   18.7478 H   0  0  0  0  0  0  0  0  0  0  0  0
   19.8585   17.2491   20.4806 H   0  0  0  0  0  0  0  0  0  0  0  0
  1  2  1  0  0  0  0
  1  3  2  0  0  0  0
  1  4  1  0  0  0  0
  4  5  1  0  0  0  0
  4  6  1  0  0  0  0
  4  7  1  0  0  0  0
  7  8  1  0  0  0  0
  7  9  1  0  0  0  0
  7 10  1  0  0  0  0
 10 11  1  0  0  0  0
 10 12  1  0  0  0  0
 10 13  1  0  0  0  0
 13 14  1  0  0  0  0
 13 15  1  0  0  0  0
 13 16  1  0  0  0  0
 16 17  1  0  0  0  0
 16 18  1  0  0  0  0
 16 19  1  0  0  0  0
 19 20  1  0  0  0  0
 19 21  1  0  0  0  0
 19 22  1  0  0  0  0
 22 23  1  0  0  0  0
 22 24  1  0  0  0  0
 22 25  1  0  0  0  0
M  END
> <VM2 Rank>
4

> <Conf_Id>
484

> <Probability>
5.13

> <Sum Probability>
39.97

> <Delta G>
0.908

> <G>
-7.055

> <E>
-31.563

> <-TS>
24.508

> <U+W>
-52.130

> <U>
6.630

> <W>
-58.760

> <W(PB)>
-61.281

> <W(SA)>
2.521

> <Valence>
8.032

> <Coulomb>
-2.441

> <VdW>
1.039

> <VdW6>
-8.257

> <VdW12>
9.295

> <Bond>
0.146

> <Angle>
2.498

> <Pdih>
5.387

> <Idih>
0.001

> <Tether>
0.000

$$$$
VeraChem MOL file


 25 24  0  0  0  0  0  0  0  0999 V2000     
   20.0214   19.1706   27.6698 C   0  0  0  0  0  0  0  0  0  0  0  0
   21.0603   19.2686   28.2925 O   0  5  0  0  0  0  0  0  0  0  0  0
   18.9408   19.5177   28.1039 O   0  0  0  0  0  0  0  0  0  0  0  0
   20.0802   18.6011   26.2569 C   0  0  0  0  0  0  0  0  0  0  0  0
   19.1420   18.0665   26.0659 H   0  0  0  0  0  0  0  0  0  0  0  0
   20.8884   17.8607   26.2214 H   0  0  0  0  0  0  0  0  0  0  0  0
   20.3046   19.6897   25.1786 C   0  0  0  0  0  0  0  0  0  0  0  0
   19.4943   20.4298   25.2358 H   0  0  0  0  0  0  0  0  0  0  0  0
   21.2406   20.2242   25.3923 H   0  0  0  0  0  0  0  0  0  0  0  0
   20.3602   19.0883   23.7574 C   0  0  0  0  0  0  0  0  0  0  0  0
   19.4241   18.5507   23.5583 H   0  0  0  0  0  0  0  0  0  0  0  0
   21.1726   18.3509   23.7025 H   0  0  0  0  0  0  0  0  0  0  0  0
   20.5801   20.1797   22.6845 C   0  0  0  0  0  0  0  0  0  0  0  0
   19.7414   20.8891   22.7001 H   0  0  0  0  0  0  0  0  0  0  0  0
   21.4793   20.7562   22.9412 H   0  0  0  0  0  0  0  0  0  0  0  0
   20.7531   19.6138   21.2548 C   0  0  0  0  0  0  0  0  0  0  0  0
   21.5945   18.9077   21.2378 H   0  0  0  0  0  0  0  0  0  0  0  0
   21.0278   20.4399   20.5847 H   0  0  0  0  0  0  0  0  0  0  0  0
   19.4832   18.9246   20.7062 C   0  0  0  0  0  0  0  0  0  0  0  0
   19.2355   18.0465   21.3169 H   0  0  0  0  0  0  0  0  0  0  0  0
   18.6296   19.6131   20.7730 H   0  0  0  0  0  0  0  0  0  0  0  0
   19.6691   18.4800   19.2414 C   0  0  0  0  0  0  0  0  0  0  0  0
   20.5003   17.7686   19.1497 H   0  0  0  0  0  0  0  0  0  0  0  0
   18.7607   17.9898   18.8678 H   0  0  0  0  0  0  0  0  0  0  0  0
   19.8807   19.3403   18.5930 H   0  0  0  0  0  0  0  0  0  0  0  0
  1  2  1  0  0  0  0
  1  3  2  0  0  0  0
  1  4  1  0  0  0  0
  4  5  1  0  0  0  0
  4  6  1  0  0  0  0
  4  7  1  0  0  0  0
  7  8  1  0  0  0  0
  7  9  1  0  0  0  0
  7 10  1  0  0  0  0
 10 11  1  0  0  0  0
 10 12  1  0  0  0  0
 10 13  1  0  0  0  0
 13 14  1  0  0  0  0
 13 15  1  0  0  0  0
 13 16  1  0  0  0  0
 16 17  1  0  0  0  0
 16 18  1  0  0  0  0
 16 19  1  0  0  0  0
 19 20  1  0  0  0  0
 19 21  1  0  0  0  0
 19 22  1  0  0  0  0
 22 23  1  0  0  0  0
 22 24  1  0  0  0  0
 22 25  1  0  0  0  0
M  END
> <VM2 Rank>
5

> <Conf_Id>
1009

> <Probability>
5.04

> <Sum Probability>
45.01

> <Delta G>
0.918

> <G>
-7.044

> <E>
-31.544

> <-TS>
24.499

> <U+W>
-52.111

> <U>
6.583

> <W>
-58.695

> <W(PB)>
-61.197

> <W(SA)>
2.502

> <Valence>
8.068

> <Coulomb>
-2.516

> <VdW>
1.031

> <VdW6>
-8.305

> <VdW12>
9.335

> <Bond>
0.150

> <Angle>
2.522

> <Pdih>
5.396

> <Idih>
0.001

> <Tether>
0.000

$$$$
VeraChem MOL file


 25 24  0  0  0  0  0  0  0  0999 V2000     
   20.3738   19.6427   27.4433 C   0  0  0  0  0  0  0  0  0  0  0  0
   21.5153   20.0321   27.5913 O   0  5  0  0  0  0  0  0  0  0  0  0
   19.4211   20.1083   28.0370 O   0  0  0  0  0  0  0  0  0  0  0  0
   20.1198   18.5218   26.4417 C   0  0  0  0  0  0  0  0  0  0  0  0
   19.2737   17.9262   26.8047 H   0  0  0  0  0  0  0  0  0  0  0  0
   20.9987   17.8661   26.4341 H   0  0  0  0  0  0  0  0  0  0  0  0
   19.8321   19.0459   25.0131 C   0  0  0  0  0  0  0  0  0  0  0  0
   18.9554   19.7078   25.0393 H   0  0  0  0  0  0  0  0  0  0  0  0
   20.6833   19.6547   24.6808 H   0  0  0  0  0  0  0  0  0  0  0  0
   19.5831   17.8893   24.0174 C   0  0  0  0  0  0  0  0  0  0  0  0
   18.7802   17.2489   24.4076 H   0  0  0  0  0  0  0  0  0  0  0  0
   20.4796   17.2579   23.9508 H   0  0  0  0  0  0  0  0  0  0  0  0
   19.1820   18.3697   22.6024 C   0  0  0  0  0  0  0  0  0  0  0  0
   18.9052   17.4919   22.0027 H   0  0  0  0  0  0  0  0  0  0  0  0
   18.2826   18.9971   22.6681 H   0  0  0  0  0  0  0  0  0  0  0  0
   20.3046   19.1428   21.8721 C   0  0  0  0  0  0  0  0  0  0  0  0
   21.2192   18.5344   21.8562 H   0  0  0  0  0  0  0  0  0  0  0  0
   20.5418   20.0648   22.4186 H   0  0  0  0  0  0  0  0  0  0  0  0
   19.9012   19.5035   20.4268 C   0  0  0  0  0  0  0  0  0  0  0  0
   19.6694   18.5871   19.8666 H   0  0  0  0  0  0  0  0  0  0  0  0
   18.9855   20.1108   20.4388 H   0  0  0  0  0  0  0  0  0  0  0  0
   21.0200   20.2777   19.7010 C   0  0  0  0  0  0  0  0  0  0  0  0
   21.9397   19.6806   19.6474 H   0  0  0  0  0  0  0  0  0  0  0  0
   20.7165   20.5255   18.6755 H   0  0  0  0  0  0  0  0  0  0  0  0
   21.2504   21.2160   20.2224 H   0  0  0  0  0  0  0  0  0  0  0  0
  1  2  1  0  0  0  0
  1  3  2  0  0  0  0
  1  4  1  0  0  0  0
  4  5  1  0  0  0  0
  4  6  1  0  0  0  0
  4  7  1  0  0  0  0
  7  8  1  0  0  0  0
  7  9  1  0  0  0  0
  7 10  1  0  0  0  0
 10 11  1  0  0  0  0
 10 12  1  0  0  0  0
 10 13  1  0  0  0  0
 13 14  1  0  0  0  0
 13 15  1  0  0  0  0
 13 16  1  0  0  0  0
 16 17  1  0  0  0  0
 16 18  1  0  0  0  0
 16 19  1  0  0  0  0
 19 20  1  0  0  0  0
 19 21  1  0  0  0  0
 19 22  1  0  0  0  0
 22 23  1  0  0  0  0
 22 24  1  0  0  0  0
 22 25  1  0  0  0  0
M  END
> <VM2 Rank>
6

> <Conf_Id>
1085

> <Probability>
4.98

> <Sum Probability>
49.99

> <Delta G>
0.926

> <G>
-7.037

> <E>
-31.542

> <-TS>
24.506

> <U+W>
-52.110

> <U>
7.044

> <W>
-59.154

> <W(PB)>
-61.665

> <W(SA)>
2.511

> <Valence>
8.064

> <Coulomb>
-2.027

> <VdW>
1.007

> <VdW6>
-8.345

> <VdW12>
9.352

> <Bond>
0.151

> <Angle>
2.518

> <Pdih>
5.395

> <Idih>
0.001

> <Tether>
0.000

$$$$
VeraChem MOL file


 25 24  0  0  0  0  0  0  0  0999 V2000     
   20.3158   19.1892   27.6664 C   0  0  0  0  0  0  0  0  0  0  0  0
   21.3534   19.6711   28.0763 O   0  5  0  0  0  0  0  0  0  0  0  0
   19.2874   19.1556   28.3129 O   0  0  0  0  0  0  0  0  0  0  0  0
   20.2974   18.6149   26.2544 C   0  0  0  0  0  0  0  0  0  0  0  0
   19.5889   17.7781   26.2361 H   0  0  0  0  0  0  0  0  0  0  0  0
   21.2912   18.2032   26.0412 H   0  0  0  0  0  0  0  0  0  0  0  0
   19.9125   19.6648   25.1831 C   0  0  0  0  0  0  0  0  0  0  0  0
   18.9215   20.0769   25.4190 H   0  0  0  0  0  0  0  0  0  0  0  0
   20.6237   20.5016   25.2229 H   0  0  0  0  0  0  0  0  0  0  0  0
   19.9008   19.0593   23.7627 C   0  0  0  0  0  0  0  0  0  0  0  0
   19.1871   18.2249   23.7254 H   0  0  0  0  0  0  0  0  0  0  0  0
   20.8926   18.6441   23.5413 H   0  0  0  0  0  0  0  0  0  0  0  0
   19.5199   20.1125   22.6967 C   0  0  0  0  0  0  0  0  0  0  0  0
   18.5612   20.5711   22.9751 H   0  0  0  0  0  0  0  0  0  0  0  0
   20.2624   20.9223   22.6940 H   0  0  0  0  0  0  0  0  0  0  0  0
   19.3868   19.5272   21.2706 C   0  0  0  0  0  0  0  0  0  0  0  0
   18.9946   20.3110   20.6082 H   0  0  0  0  0  0  0  0  0  0  0  0
   18.6412   18.7204   21.2721 H   0  0  0  0  0  0  0  0  0  0  0  0
   20.7205   19.0030   20.6919 C   0  0  0  0  0  0  0  0  0  0  0  0
   21.4817   19.7940   20.7399 H   0  0  0  0  0  0  0  0  0  0  0  0
   21.0912   18.1642   21.2954 H   0  0  0  0  0  0  0  0  0  0  0  0
   20.5585   18.5363   19.2311 C   0  0  0  0  0  0  0  0  0  0  0  0
   20.2249   19.3620   18.5890 H   0  0  0  0  0  0  0  0  0  0  0  0
   21.5127   18.1642   18.8359 H   0  0  0  0  0  0  0  0  0  0  0  0
   19.8219   17.7255   19.1576 H   0  0  0  0  0  0  0  0  0  0  0  0
  1  2  1  0  0  0  0
  1  3  2  0  0  0  0
  1  4  1  0  0  0  0
  4  5  1  0  0  0  0
  4  6  1  0  0  0  0
  4  7  1  0  0  0  0
  7  8  1  0  0  0  0
  7  9  1  0  0  0  0
  7 10  1  0  0  0  0
 10 11  1  0  0  0  0
 10 12  1  0  0  0  0
 10 13  1  0  0  0  0
 13 14  1  0  0  0  0
 13 15  1  0  0  0  0
 13 16  1  0  0  0  0
 16 17  1  0  0  0  0
 16 18  1  0  0  0  0
 16 19  1  0  0  0  0
 19 20  1  0  0  0  0
 19 21  1  0  0  0  0
 19 22  1  0  0  0  0
 22 23  1  0  0  0  0
 22 24  1  0  0  0  0
 22 25  1  0  0  0  0
M  END
> <VM2 Rank>
7

> <Conf_Id>
738

> <Probability>
4.77

> <Sum Probability>
54.77

> <Delta G>
0.951

> <G>
-7.012

> <E>
-31.511

> <-TS>
24.499

> <U+W>
-52.078

> <U>
6.583

> <W>
-58.662

> <W(PB)>
-61.145

> <W(SA)>
2.483

> <Valence>
8.068

> <Coulomb>
-2.516

> <VdW>
1.031

> <VdW6>
-8.305

> <VdW12>
9.336

> <Bond>
0.150

> <Angle>
2.522

> <Pdih>
5.396

> <Idih>
0.001

> <Tether>
0.000

$$$$
VeraChem MOL file


 25 24  0  0  0  0  0  0  0  0999 V2000     
   20.0591   19.4466   27.7000 C   0  0  0  0  0  0  0  0  0  0  0  0
   21.0532   19.9252   28.2092 O   0  5  0  0  0  0  0  0  0  0  0  0
   18.9333   19.6288   28.1195 O   0  0  0  0  0  0  0  0  0  0  0  0
   20.2320   18.5882   26.4520 C   0  0  0  0  0  0  0  0  0  0  0  0
   19.4469   17.8225   26.4538 H   0  0  0  0  0  0  0  0  0  0  0  0
   21.1937   18.0667   26.5278 H   0  0  0  0  0  0  0  0  0  0  0  0
   20.1722   19.4122   25.1423 C   0  0  0  0  0  0  0  0  0  0  0  0
   19.2090   19.9384   25.0883 H   0  0  0  0  0  0  0  0  0  0  0  0
   20.9557   20.1825   25.1620 H   0  0  0  0  0  0  0  0  0  0  0  0
   20.3494   18.5212   23.8938 C   0  0  0  0  0  0  0  0  0  0  0  0
   19.5652   17.7520   23.8771 H   0  0  0  0  0  0  0  0  0  0  0  0
   21.3124   17.9955   23.9520 H   0  0  0  0  0  0  0  0  0  0  0  0
   20.2896   19.3455   22.5896 C   0  0  0  0  0  0  0  0  0  0  0  0
   19.3277   19.8723   22.5410 H   0  0  0  0  0  0  0  0  0  0  0  0
   21.0757   20.1127   22.6041 H   0  0  0  0  0  0  0  0  0  0  0  0
   20.4636   18.4515   21.3401 C   0  0  0  0  0  0  0  0  0  0  0  0
   19.6494   17.7153   21.2954 H   0  0  0  0  0  0  0  0  0  0  0  0
   21.3959   17.8786   21.4376 H   0  0  0  0  0  0  0  0  0  0  0  0
   20.5135   19.2484   20.0157 C   0  0  0  0  0  0  0  0  0  0  0  0
   21.3310   19.9815   20.0543 H   0  0  0  0  0  0  0  0  0  0  0  0
   20.7555   18.5567   19.1971 H   0  0  0  0  0  0  0  0  0  0  0  0
   19.1873   19.9664   19.6838 C   0  0  0  0  0  0  0  0  0  0  0  0
   19.2449   20.4417   18.6961 H   0  0  0  0  0  0  0  0  0  0  0  0
   18.3494   19.2572   19.6692 H   0  0  0  0  0  0  0  0  0  0  0  0
   18.9619   20.7510   20.4169 H   0  0  0  0  0  0  0  0  0  0  0  0
  1  2  1  0  0  0  0
  1  3  2  0  0  0  0
  1  4  1  0  0  0  0
  4  5  1  0  0  0  0
  4  6  1  0  0  0  0
  4  7  1  0  0  0  0
  7  8  1  0  0  0  0
  7  9  1  0  0  0  0
  7 10  1  0  0  0  0
 10 11  1  0  0  0  0
 10 12  1  0  0  0  0
 10 13  1  0  0  0  0
 13 14  1  0  0  0  0
 13 15  1  0  0  0  0
 13 16  1  0  0  0  0
 16 17  1  0  0  0  0
 16 18  1  0  0  0  0
 16 19  1  0  0  0  0
 19 20  1  0  0  0  0
 19 21  1  0  0  0  0
 19 22  1  0  0  0  0
 22 23  1  0  0  0  0
 22 24  1  0  0  0  0
 22 25  1  0  0  0  0
M  END
> <VM2 Rank>
8

> <Conf_Id>
939

> <Probability>
4.77

> <Sum Probability>
59.53

> <Delta G>
0.951

> <G>
-7.011

> <E>
-31.519

> <-TS>
24.508

> <U+W>
-52.086

> <U>
6.630

> <W>
-58.716

> <W(PB)>
-61.242

> <W(SA)>
2.525

> <Valence>
8.032

> <Coulomb>
-2.441

> <VdW>
1.039

> <VdW6>
-8.256

> <VdW12>
9.295

> <Bond>
0.146

> <Angle>
2.498

> <Pdih>
5.387

> <Idih>
0.001

> <Tether>
0.000

$$$$
VeraChem MOL file


 25 24  0  0  0  0  0  0  0  0999 V2000     
   20.2481   18.9185   27.4571 C   0  0  0  0  0  0  0  0  0  0  0  0
   21.1925   18.1728   27.6263 O   0  5  0  0  0  0  0  0  0  0  0  0
   19.1981   18.8232   28.0614 O   0  0  0  0  0  0  0  0  0  0  0  0
   20.3801   20.0217   26.4133 C   0  0  0  0  0  0  0  0  0  0  0  0
   21.4285   20.3424   26.3872 H   0  0  0  0  0  0  0  0  0  0  0  0
   19.7864   20.8805   26.7488 H   0  0  0  0  0  0  0  0  0  0  0  0
   19.9236   19.5730   25.0031 C   0  0  0  0  0  0  0  0  0  0  0  0
   20.5180   18.7014   24.6989 H   0  0  0  0  0  0  0  0  0  0  0  0
   18.8755   19.2464   25.0481 H   0  0  0  0  0  0  0  0  0  0  0  0
   20.0723   20.7085   23.9640 C   0  0  0  0  0  0  0  0  0  0  0  0
   21.1287   20.9982   23.8800 H   0  0  0  0  0  0  0  0  0  0  0  0
   19.5345   21.5957   24.3254 H   0  0  0  0  0  0  0  0  0  0  0  0
   19.5238   20.3395   22.5652 C   0  0  0  0  0  0  0  0  0  0  0  0
   18.4661   20.0546   22.6482 H   0  0  0  0  0  0  0  0  0  0  0  0
   19.5550   21.2367   21.9318 H   0  0  0  0  0  0  0  0  0  0  0  0
   20.3158   19.2073   21.8709 C   0  0  0  0  0  0  0  0  0  0  0  0
   20.2321   18.2801   22.4524 H   0  0  0  0  0  0  0  0  0  0  0  0
   21.3817   19.4712   21.8385 H   0  0  0  0  0  0  0  0  0  0  0  0
   19.8053   18.9507   20.4373 C   0  0  0  0  0  0  0  0  0  0  0  0
   18.7386   18.6881   20.4658 H   0  0  0  0  0  0  0  0  0  0  0  0
   19.8919   19.8704   19.8424 H   0  0  0  0  0  0  0  0  0  0  0  0
   20.5933   17.8189   19.7475 C   0  0  0  0  0  0  0  0  0  0  0  0
   20.4977   16.8776   20.3044 H   0  0  0  0  0  0  0  0  0  0  0  0
   20.2176   17.6503   18.7299 H   0  0  0  0  0  0  0  0  0  0  0  0
   21.6601   18.0692   19.6778 H   0  0  0  0  0  0  0  0  0  0  0  0
  1  2  1  0  0  0  0
  1  3  2  0  0  0  0
  1  4  1  0  0  0  0
  4  5  1  0  0  0  0
  4  6  1  0  0  0  0
  4  7  1  0  0  0  0
  7  8  1  0  0  0  0
  7  9  1  0  0  0  0
  7 10  1  0  0  0  0
 10 11  1  0  0  0  0
 10 12  1  0  0  0  0
 10 13  1  0  0  0  0
 13 14  1  0  0  0  0
 13 15  1  0  0  0  0
 13 16  1  0  0  0  0
 16 17  1  0  0  0  0
 16 18  1  0  0  0  0
 16 19  1  0  0  0  0
 19 20  1  0  0  0  0
 19 21  1  0  0  0  0
 19 22  1  0  0  0  0
 22 23  1  0  0  0  0
 22 24  1  0  0  0  0
 22 25  1  0  0  0  0
M  END
> <VM2 Rank>
9

> <Conf_Id>
757

> <Probability>
4.51

> <Sum Probability>
64.04

> <Delta G>
0.985

> <G>
-6.978

> <E>
-31.483

> <-TS>
24.505

> <U+W>
-52.051

> <U>
7.044

> <W>
-59.095

> <W(PB)>
-61.609

> <W(SA)>
2.514

> <Valence>
8.064

> <Coulomb>
-2.027

> <VdW>
1.007

> <VdW6>
-8.345

> <VdW12>
9.352

> <Bond>
0.151

> <Angle>
2.518

> <Pdih>
5.394

> <Idih>
0.001

> <Tether>
0.000

$$$$
VeraChem MOL file


 25 24  0  0  0  0  0  0  0  0999 V2000     
   19.9392   19.5648   27.3300 C   0  0  0  0  0  0  0  0  0  0  0  0
   20.7378   20.3659   27.7744 O   0  5  0  0  0  0  0  0  0  0  0  0
   18.7367   19.7408   27.3336 O   0  0  0  0  0  0  0  0  0  0  0  0
   20.4772   18.2591   26.7513 C   0  0  0  0  0  0  0  0  0  0  0  0
   19.6607   17.5277   26.7191 H   0  0  0  0  0  0  0  0  0  0  0  0
   21.2232   17.8714   27.4550 H   0  0  0  0  0  0  0  0  0  0  0  0
   21.1181   18.4089   25.3471 C   0  0  0  0  0  0  0  0  0  0  0  0
   21.9150   19.1644   25.3894 H   0  0  0  0  0  0  0  0  0  0  0  0
   21.5969   17.4596   25.0708 H   0  0  0  0  0  0  0  0  0  0  0  0
   20.0881   18.7948   24.2618 C   0  0  0  0  0  0  0  0  0  0  0  0
   19.6170   19.7527   24.5224 H   0  0  0  0  0  0  0  0  0  0  0  0
   19.2868   18.0437   24.2327 H   0  0  0  0  0  0  0  0  0  0  0  0
   20.7415   18.9071   22.8675 C   0  0  0  0  0  0  0  0  0  0  0  0
   21.5426   19.6584   22.8976 H   0  0  0  0  0  0  0  0  0  0  0  0
   21.2106   17.9494   22.6035 H   0  0  0  0  0  0  0  0  0  0  0  0
   19.7130   19.2935   21.7827 C   0  0  0  0  0  0  0  0  0  0  0  0
   19.2437   20.2513   22.0466 H   0  0  0  0  0  0  0  0  0  0  0  0
   18.9117   18.5426   21.7526 H   0  0  0  0  0  0  0  0  0  0  0  0
   20.3658   19.4065   20.3890 C   0  0  0  0  0  0  0  0  0  0  0  0
   21.1668   20.1582   20.4149 H   0  0  0  0  0  0  0  0  0  0  0  0
   20.8346   18.4495   20.1208 H   0  0  0  0  0  0  0  0  0  0  0  0
   19.3355   19.7927   19.3087 C   0  0  0  0  0  0  0  0  0  0  0  0
   18.8733   20.7623   19.5355 H   0  0  0  0  0  0  0  0  0  0  0  0
   19.8165   19.8684   18.3248 H   0  0  0  0  0  0  0  0  0  0  0  0
   18.5385   19.0408   19.2393 H   0  0  0  0  0  0  0  0  0  0  0  0
  1  2  1  0  0  0  0
  1  3  2  0  0  0  0
  1  4  1  0  0  0  0
  4  5  1  0  0  0  0
  4  6  1  0  0  0  0
  4  7  1  0  0  0  0
  7  8  1  0  0  0  0
  7  9  1  0  0  0  0
  7 10  1  0  0  0  0
 10 11  1  0  0  0  0
 10 12  1  0  0  0  0
 10 13  1  0  0  0  0
 13 14  1  0  0  0  0
 13 15  1  0  0  0  0
 13 16  1  0  0  0  0
 16 17  1  0  0  0  0
 16 18  1  0  0  0  0
 16 19  1  0  0  0  0
 19 20  1  0  0  0  0
 19 21  1  0  0  0  0
 19 22  1  0  0  0  0
 22 23  1  0  0  0  0
 22 24  1  0  0  0  0
 22 25  1  0  0  0  0
M  END
> <VM2 Rank>
10

> <Conf_Id>
194

> <Probability>
2.32

> <Sum Probability>
66.36

> <Delta G>
1.381

> <G>
-6.581

> <E>
-31.293

> <-TS>
24.711

> <U+W>
-51.860

> <U>
7.816

> <W>
-59.676

> <W(PB)>
-62.181

> <W(SA)>
2.505

> <Valence>
7.785

> <Coulomb>
-0.714

> <VdW>
0.744

> <VdW6>
-8.514

> <VdW12>
9.259

> <Bond>
0.136

> <Angle>
2.433

> <Pdih>
5.216

> <Idih>
0.000

> <Tether>
0.000

$$$$
VeraChem MOL file


 25 24  0  0  0  0  0  0  0  0999 V2000     
   20.2303   18.9546   27.3352 C   0  0  0  0  0  0  0  0  0  0  0  0
   21.3527   19.0775   27.7847 O   0  5  0  0  0  0  0  0  0  0  0  0
   19.6106   17.9092   27.3494 O   0  0  0  0  0  0  0  0  0  0  0  0
   19.5577   20.1860   26.7350 C   0  0  0  0  0  0  0  0  0  0  0  0
   19.7209   21.0194   27.4284 H   0  0  0  0  0  0  0  0  0  0  0  0
   18.4757   20.0109   26.6980 H   0  0  0  0  0  0  0  0  0  0  0  0
   20.0865   20.5706   25.3288 C   0  0  0  0  0  0  0  0  0  0  0  0
   19.6517   21.5360   25.0363 H   0  0  0  0  0  0  0  0  0  0  0  0
   21.1748   20.7154   25.3763 H   0  0  0  0  0  0  0  0  0  0  0  0
   19.7457   19.5122   24.2558 C   0  0  0  0  0  0  0  0  0  0  0  0
   18.6580   19.3614   24.2215 H   0  0  0  0  0  0  0  0  0  0  0  0
   20.1922   18.5471   24.5327 H   0  0  0  0  0  0  0  0  0  0  0  0
   20.2534   19.9302   22.8589 C   0  0  0  0  0  0  0  0  0  0  0  0
   19.8059   20.8936   22.5786 H   0  0  0  0  0  0  0  0  0  0  0  0
   21.3412   20.0806   22.8942 H   0  0  0  0  0  0  0  0  0  0  0  0
   19.9138   18.8727   21.7863 C   0  0  0  0  0  0  0  0  0  0  0  0
   18.8261   18.7219   21.7511 H   0  0  0  0  0  0  0  0  0  0  0  0
   20.3612   17.9091   22.0665 H   0  0  0  0  0  0  0  0  0  0  0  0
   20.4216   19.2898   20.3900 C   0  0  0  0  0  0  0  0  0  0  0  0
   19.9748   20.2525   20.1056 H   0  0  0  0  0  0  0  0  0  0  0  0
   21.5098   19.4396   20.4211 H   0  0  0  0  0  0  0  0  0  0  0  0
   20.0806   18.2312   19.3220 C   0  0  0  0  0  0  0  0  0  0  0  0
   18.9952   18.0840   19.2473 H   0  0  0  0  0  0  0  0  0  0  0  0
   20.4487   18.5437   18.3361 H   0  0  0  0  0  0  0  0  0  0  0  0
   20.5417   17.2650   19.5653 H   0  0  0  0  0  0  0  0  0  0  0  0
  1  2  1  0  0  0  0
  1  3  2  0  0  0  0
  1  4  1  0  0  0  0
  4  5  1  0  0  0  0
  4  6  1  0  0  0  0
  4  7  1  0  0  0  0
  7  8  1  0  0  0  0
  7  9  1  0  0  0  0
  7 10  1  0  0  0  0
 10 11  1  0  0  0  0
 10 12  1  0  0  0  0
 10 13  1  0  0  0  0
 13 14  1  0  0  0  0
 13 15  1  0  0  0  0
 13 16  1  0  0  0  0
 16 17  1  0  0  0  0
 16 18  1  0  0  0  0
 16 19  1  0  0  0  0
 19 20  1  0  0  0  0
 19 21  1  0  0  0  0
 19 22  1  0  0  0  0
 22 23  1  0  0  0  0
 22 24  1  0  0  0  0
 22 25  1  0  0  0  0
M  END
> <VM2 Rank>
11

> <Conf_Id>
54

> <Probability>
2.29

> <Sum Probability>
68.66

> <Delta G>
1.388

> <G>
-6.575

> <E>
-31.286

> <-TS>
24.711

> <U+W>
-51.854

> <U>
7.816

> <W>
-59.670

> <W(PB)>
-62.157

> <W(SA)>
2.487

> <Valence>
7.785

> <Coulomb>
-0.713

> <VdW>
0.744

> <VdW6>
-8.515

> <VdW12>
9.259

> <Bond>
0.136

> <Angle>
2.433

> <Pdih>
5.215

> <Idih>
0.000

> <Tether>
0.000

$$$$
VeraChem MOL file


 25 24  0  0  0  0  0  0  0  0999 V2000     
   20.1094   19.8189   27.3324 C   0  0  0  0  0  0  0  0  0  0  0  0
   21.1335   20.4356   27.5504 O   0  5  0  0  0  0  0  0  0  0  0  0
   19.3794   19.3956   28.2068 O   0  0  0  0  0  0  0  0  0  0  0  0
   19.7318   19.5399   25.8820 C   0  0  0  0  0  0  0  0  0  0  0  0
   20.0751   20.3884   25.2796 H   0  0  0  0  0  0  0  0  0  0  0  0
   18.6377   19.5136   25.8145 H   0  0  0  0  0  0  0  0  0  0  0  0
   20.3329   18.2126   25.3507 C   0  0  0  0  0  0  0  0  0  0  0  0
   21.4299   18.2693   25.3795 H   0  0  0  0  0  0  0  0  0  0  0  0
   20.0466   17.3987   26.0312 H   0  0  0  0  0  0  0  0  0  0  0  0
   19.8654   17.8506   23.9209 C   0  0  0  0  0  0  0  0  0  0  0  0
   18.7690   17.7850   23.8977 H   0  0  0  0  0  0  0  0  0  0  0  0
   20.2420   16.8483   23.6751 H   0  0  0  0  0  0  0  0  0  0  0  0
   20.3500   18.8489   22.8440 C   0  0  0  0  0  0  0  0  0  0  0  0
   19.9231   19.8393   23.0426 H   0  0  0  0  0  0  0  0  0  0  0  0
   21.4422   18.9502   22.9025 H   0  0  0  0  0  0  0  0  0  0  0  0
   19.9496   18.3914   21.4221 C   0  0  0  0  0  0  0  0  0  0  0  0
   18.8551   18.3341   21.3465 H   0  0  0  0  0  0  0  0  0  0  0  0
   20.3268   17.3734   21.2542 H   0  0  0  0  0  0  0  0  0  0  0  0
   20.4981   19.3079   20.3037 C   0  0  0  0  0  0  0  0  0  0  0  0
   21.5933   19.3634   20.3731 H   0  0  0  0  0  0  0  0  0  0  0  0
   20.2719   18.8503   19.3307 H   0  0  0  0  0  0  0  0  0  0  0  0
   19.9029   20.7325   20.3329 C   0  0  0  0  0  0  0  0  0  0  0  0
   20.2023   21.2736   21.2392 H   0  0  0  0  0  0  0  0  0  0  0  0
   20.2532   21.3125   19.4693 H   0  0  0  0  0  0  0  0  0  0  0  0
   18.8062   20.7010   20.2964 H   0  0  0  0  0  0  0  0  0  0  0  0
  1  2  1  0  0  0  0
  1  3  2  0  0  0  0
  1  4  1  0  0  0  0
  4  5  1  0  0  0  0
  4  6  1  0  0  0  0
  4  7  1  0  0  0  0
  7  8  1  0  0  0  0
  7  9  1  0  0  0  0
  7 10  1  0  0  0  0
 10 11  1  0  0  0  0
 10 12  1  0  0  0  0
 10 13  1  0  0  0  0
 13 14  1  0  0  0  0
 13 15  1  0  0  0  0
 13 16  1  0  0  0  0
 16 17  1  0  0  0  0
 16 18  1  0  0  0  0
 16 19  1  0  0  0  0
 19 20  1  0  0  0  0
 19 21  1  0  0  0  0
 19 22  1  0  0  0  0
 22 23  1  0  0  0  0
 22 24  1  0  0  0  0
 22 25  1  0  0  0  0
M  END
> <VM2 Rank>
12

> <Conf_Id>
88

> <Probability>
1.35

> <Sum Probability>
70.01

> <Delta G>
1.703

> <G>
-6.260

> <E>
-30.876

> <-TS>
24.616

> <U+W>
-51.443

> <U>
7.701

> <W>
-59.144

> <W(PB)>
-61.610

> <W(SA)>
2.466

> <Valence>
8.550

> <Coulomb>
-1.988

> <VdW>
1.139

> <VdW6>
-8.989

> <VdW12>
10.127

> <Bond>
0.191

> <Angle>
2.738

> <Pdih>
5.621

> <Idih>
0.001

> <Tether>
0.000

$$$$
VeraChem MOL file


 25 24  0  0  0  0  0  0  0  0999 V2000     
   20.5515   19.2703   27.3961 C   0  0  0  0  0  0  0  0  0  0  0  0
   21.5344   19.9703   27.5395 O   0  5  0  0  0  0  0  0  0  0  0  0
   19.8335   18.9222   28.3127 O   0  0  0  0  0  0  0  0  0  0  0  0
   20.1852   18.8233   25.9854 C   0  0  0  0  0  0  0  0  0  0  0  0
   19.7043   17.8403   26.0542 H   0  0  0  0  0  0  0  0  0  0  0  0
   21.1178   18.6913   25.4253 H   0  0  0  0  0  0  0  0  0  0  0  0
   19.2502   19.8272   25.2622 C   0  0  0  0  0  0  0  0  0  0  0  0
   18.3695   20.0072   25.8942 H   0  0  0  0  0  0  0  0  0  0  0  0
   19.7606   20.7948   25.1590 H   0  0  0  0  0  0  0  0  0  0  0  0
   18.7728   19.3373   23.8744 C   0  0  0  0  0  0  0  0  0  0  0  0
   18.0321   20.0511   23.4886 H   0  0  0  0  0  0  0  0  0  0  0  0
   18.2514   18.3765   23.9831 H   0  0  0  0  0  0  0  0  0  0  0  0
   19.9178   19.1960   22.8449 C   0  0  0  0  0  0  0  0  0  0  0  0
   20.4695   20.1433   22.7881 H   0  0  0  0  0  0  0  0  0  0  0  0
   20.6281   18.4282   23.1773 H   0  0  0  0  0  0  0  0  0  0  0  0
   19.3808   18.8156   21.4456 C   0  0  0  0  0  0  0  0  0  0  0  0
   18.7137   19.6068   21.0771 H   0  0  0  0  0  0  0  0  0  0  0  0
   18.7683   17.9078   21.5330 H   0  0  0  0  0  0  0  0  0  0  0  0
   20.4977   18.5566   20.4078 C   0  0  0  0  0  0  0  0  0  0  0  0
   21.1619   17.7591   20.7687 H   0  0  0  0  0  0  0  0  0  0  0  0
   20.0388   18.1827   19.4821 H   0  0  0  0  0  0  0  0  0  0  0  0
   21.3291   19.8151   20.0774 C   0  0  0  0  0  0  0  0  0  0  0  0
   21.8993   20.1589   20.9495 H   0  0  0  0  0  0  0  0  0  0  0  0
   22.0468   19.6012   19.2748 H   0  0  0  0  0  0  0  0  0  0  0  0
   20.6824   20.6366   19.7426 H   0  0  0  0  0  0  0  0  0  0  0  0
  1  2  1  0  0  0  0
  1  3  2  0  0  0  0
  1  4  1  0  0  0  0
  4  5  1  0  0  0  0
  4  6  1  0  0  0  0
  4  7  1  0  0  0  0
  7  8  1  0  0  0  0
  7  9  1  0  0  0  0
  7 10  1  0  0  0  0
 10 11  1  0  0  0  0
 10 12  1  0  0  0  0
 10 13  1  0  0  0  0
 13 14  1  0  0  0  0
 13 15  1  0  0  0  0
 13 16  1  0  0  0  0
 16 17  1  0  0  0  0
 16 18  1  0  0  0  0
 16 19  1  0  0  0  0
 19 20  1  0  0  0  0
 19 21  1  0  0  0  0
 19 22  1  0  0  0  0
 22 23  1  0  0  0  0
 22 24  1  0  0  0  0
 22 25  1  0  0  0  0
M  END
> <VM2 Rank>
13

> <Conf_Id>
566

> <Probability>
1.30

> <Sum Probability>
71.31

> <Delta G>
1.727

> <G>
-6.235

> <E>
-30.855

> <-TS>
24.620

> <U+W>
-51.423

> <U>
7.651

> <W>
-59.074

> <W(PB)>
-61.559

> <W(SA)>
2.486

> <Valence>
8.550

> <Coulomb>
-2.035

> <VdW>
1.135

> <VdW6>
-8.973

> <VdW12>
10.109

> <Bond>
0.188

> <Angle>
2.738

> <Pdih>
5.623

> <Idih>
0.001

> <Tether>
0.000

$$$$
VeraChem MOL file


 25 24  0  0  0  0  0  0  0  0999 V2000     
   20.1385   19.8208   27.3320 C   0  0  0  0  0  0  0  0  0  0  0  0
   20.9364   19.4954   28.1889 O   0  5  0  0  0  0  0  0  0  0  0  0
   19.0493   20.3022   27.5745 O   0  0  0  0  0  0  0  0  0  0  0  0
   20.5151   19.5900   25.8730 C   0  0  0  0  0  0  0  0  0  0  0  0
   21.6018   19.7032   25.7802 H   0  0  0  0  0  0  0  0  0  0  0  0
   20.0527   20.3869   25.2798 H   0  0  0  0  0  0  0  0  0  0  0  0
   20.0759   18.1962   25.3537 C   0  0  0  0  0  0  0  0  0  0  0  0
   20.4792   17.4264   26.0262 H   0  0  0  0  0  0  0  0  0  0  0  0
   18.9817   18.1126   25.4079 H   0  0  0  0  0  0  0  0  0  0  0  0
   20.5527   17.8946   23.9129 C   0  0  0  0  0  0  0  0  0  0  0  0
   20.3013   16.8521   23.6744 H   0  0  0  0  0  0  0  0  0  0  0  0
   21.6477   17.9691   23.8644 H   0  0  0  0  0  0  0  0  0  0  0  0
   19.9202   18.8214   22.8490 C   0  0  0  0  0  0  0  0  0  0  0  0
   18.8257   18.7829   22.9328 H   0  0  0  0  0  0  0  0  0  0  0  0
   20.2219   19.8584   23.0391 H   0  0  0  0  0  0  0  0  0  0  0  0
   20.3427   18.4166   21.4176 C   0  0  0  0  0  0  0  0  0  0  0  0
   20.0945   17.3585   21.2569 H   0  0  0  0  0  0  0  0  0  0  0  0
   21.4335   18.4990   21.3167 H   0  0  0  0  0  0  0  0  0  0  0  0
   19.6563   19.2541   20.3134 C   0  0  0  0  0  0  0  0  0  0  0  0
   19.9164   18.8275   19.3349 H   0  0  0  0  0  0  0  0  0  0  0  0
   18.5649   19.1697   20.4082 H   0  0  0  0  0  0  0  0  0  0  0  0
   20.0657   20.7429   20.3310 C   0  0  0  0  0  0  0  0  0  0  0  0
   21.1564   20.8513   20.2691 H   0  0  0  0  0  0  0  0  0  0  0  0
   19.6245   21.2723   19.4766 H   0  0  0  0  0  0  0  0  0  0  0  0
   19.7210   21.2428   21.2447 H   0  0  0  0  0  0  0  0  0  0  0  0
  1  2  1  0  0  0  0
  1  3  2  0  0  0  0
  1  4  1  0  0  0  0
  4  5  1  0  0  0  0
  4  6  1  0  0  0  0
  4  7  1  0  0  0  0
  7  8  1  0  0  0  0
  7  9  1  0  0  0  0
  7 10  1  0  0  0  0
 10 11  1  0  0  0  0
 10 12  1  0  0  0  0
 10 13  1  0  0  0  0
 13 14  1  0  0  0  0
 13 15  1  0  0  0  0
 13 16  1  0  0  0  0
 16 17  1  0  0  0  0
 16 18  1  0  0  0  0
 16 19  1  0  0  0  0
 19 20  1  0  0  0  0
 19 21  1  0  0  0  0
 19 22  1  0  0  0  0
 22 23  1  0  0  0  0
 22 24  1  0  0  0  0
 22 25  1  0  0  0  0
M  END
> <VM2 Rank>
14

> <Conf_Id>
923

> <Probability>
1.29

> <Sum Probability>
72.60

> <Delta G>
1.731

> <G>
-6.231

> <E>
-30.847

> <-TS>
24.616

> <U+W>
-51.414

> <U>
7.701

> <W>
-59.115

> <W(PB)>
-61.582

> <W(SA)>
2.467

> <Valence>
8.550

> <Coulomb>
-1.988

> <VdW>
1.139

> <VdW6>
-8.989

> <VdW12>
10.127

> <Bond>
0.191

> <Angle>
2.738

> <Pdih>
5.620

> <Idih>
0.001

> <Tether>
0.000

$$$$
VeraChem MOL file


 25 24  0  0  0  0  0  0  0  0999 V2000     
   20.1384   19.0331   27.4846 C   0  0  0  0  0  0  0  0  0  0  0  0
   21.2267   19.2310   27.9879 O   0  5  0  0  0  0  0  0  0  0  0  0
   19.1032   18.9800   28.1188 O   0  0  0  0  0  0  0  0  0  0  0  0
   20.0647   18.8654   25.9712 C   0  0  0  0  0  0  0  0  0  0  0  0
   19.2364   18.1836   25.7444 H   0  0  0  0  0  0  0  0  0  0  0  0
   20.9887   18.3750   25.6446 H   0  0  0  0  0  0  0  0  0  0  0  0
   19.8683   20.2119   25.2274 C   0  0  0  0  0  0  0  0  0  0  0  0
   18.9846   20.7179   25.6401 H   0  0  0  0  0  0  0  0  0  0  0  0
   20.7246   20.8704   25.4285 H   0  0  0  0  0  0  0  0  0  0  0  0
   19.6797   20.0501   23.7003 C   0  0  0  0  0  0  0  0  0  0  0  0
   19.4428   21.0333   23.2713 H   0  0  0  0  0  0  0  0  0  0  0  0
   18.8092   19.4085   23.5112 H   0  0  0  0  0  0  0  0  0  0  0  0
   20.9282   19.4758   22.9870 C   0  0  0  0  0  0  0  0  0  0  0  0
   21.8108   20.0560   23.2888 H   0  0  0  0  0  0  0  0  0  0  0  0
   21.1070   18.4428   23.3127 H   0  0  0  0  0  0  0  0  0  0  0  0
   20.8228   19.5095   21.4438 C   0  0  0  0  0  0  0  0  0  0  0  0
   21.7871   19.1952   21.0218 H   0  0  0  0  0  0  0  0  0  0  0  0
   20.6591   20.5427   21.1082 H   0  0  0  0  0  0  0  0  0  0  0  0
   19.7082   18.5971   20.8835 C   0  0  0  0  0  0  0  0  0  0  0  0
   19.8428   17.5738   21.2602 H   0  0  0  0  0  0  0  0  0  0  0  0
   18.7263   18.9412   21.2341 H   0  0  0  0  0  0  0  0  0  0  0  0
   19.7128   18.5801   19.3415 C   0  0  0  0  0  0  0  0  0  0  0  0
   20.6691   18.2039   18.9552 H   0  0  0  0  0  0  0  0  0  0  0  0
   18.9144   17.9308   18.9596 H   0  0  0  0  0  0  0  0  0  0  0  0
   19.5523   19.5883   18.9375 H   0  0  0  0  0  0  0  0  0  0  0  0
  1  2  1  0  0  0  0
  1  3  2  0  0  0  0
  1  4  1  0  0  0  0
  4  5  1  0  0  0  0
  4  6  1  0  0  0  0
  4  7  1  0  0  0  0
  7  8  1  0  0  0  0
  7  9  1  0  0  0  0
  7 10  1  0  0  0  0
 10 11  1  0  0  0  0
 10 12  1  0  0  0  0
 10 13  1  0  0  0  0
 13 14  1  0  0  0  0
 13 15  1  0  0  0  0
 13 16  1  0  0  0  0
 16 17  1  0  0  0  0
 16 18  1  0  0  0  0
 16 19  1  0  0  0  0
 19 20  1  0  0  0  0
 19 21  1  0  0  0  0
 19 22  1  0  0  0  0
 22 23  1  0  0  0  0
 22 24  1  0  0  0  0
 22 25  1  0  0  0  0
M  END
> <VM2 Rank>
15

> <Conf_Id>
969

> <Probability>
1.26

> <Sum Probability>
73.86

> <Delta G>
1.744

> <G>
-6.218

> <E>
-30.854

> <-TS>
24.636

> <U+W>
-51.422

> <U>
7.389

> <W>
-58.811

> <W(PB)>
-61.285

> <W(SA)>
2.474

> <Valence>
8.557

> <Coulomb>
-2.278

> <VdW>
1.110

> <VdW6>
-9.029

> <VdW12>
10.139

> <Bond>
0.192

> <Angle>
2.716

> <Pdih>
5.648

> <Idih>
0.001

> <Tether>
0.000

$$$$
VeraChem MOL file


 25 24  0  0  0  0  0  0  0  0999 V2000     
   20.2131   19.0381   27.4839 C   0  0  0  0  0  0  0  0  0  0  0  0
   21.2611   19.1171   28.0941 O   0  5  0  0  0  0  0  0  0  0  0  0
   19.1204   19.0977   28.0122 O   0  0  0  0  0  0  0  0  0  0  0  0
   20.2727   18.8786   25.9689 C   0  0  0  0  0  0  0  0  0  0  0  0
   19.4112   18.2745   25.6631 H   0  0  0  0  0  0  0  0  0  0  0  0
   21.1754   18.3070   25.7223 H   0  0  0  0  0  0  0  0  0  0  0  0
   20.2795   20.2379   25.2226 C   0  0  0  0  0  0  0  0  0  0  0  0
   19.3514   20.7828   25.4442 H   0  0  0  0  0  0  0  0  0  0  0  0
   21.1012   20.8527   25.6156 H   0  0  0  0  0  0  0  0  0  0  0  0
   20.4520   20.0990   23.6913 C   0  0  0  0  0  0  0  0  0  0  0  0
   21.3924   19.5729   23.4813 H   0  0  0  0  0  0  0  0  0  0  0  0
   20.5521   21.1036   23.2583 H   0  0  0  0  0  0  0  0  0  0  0  0
   19.2705   19.3695   23.0063 C   0  0  0  0  0  0  0  0  0  0  0  0
   19.2323   18.3226   23.3344 H   0  0  0  0  0  0  0  0  0  0  0  0
   18.3285   19.8330   23.3293 H   0  0  0  0  0  0  0  0  0  0  0  0
   19.3350   19.4142   21.4610 C   0  0  0  0  0  0  0  0  0  0  0  0
   19.3577   20.4594   21.1235 H   0  0  0  0  0  0  0  0  0  0  0  0
   18.4090   18.9790   21.0610 H   0  0  0  0  0  0  0  0  0  0  0  0
   20.5434   18.6507   20.8736 C   0  0  0  0  0  0  0  0  0  0  0  0
   21.4813   19.1177   21.2019 H   0  0  0  0  0  0  0  0  0  0  0  0
   20.5492   17.6191   21.2516 H   0  0  0  0  0  0  0  0  0  0  0  0
   20.5053   18.6312   19.3321 C   0  0  0  0  0  0  0  0  0  0  0  0
   20.5264   19.6511   18.9262 H   0  0  0  0  0  0  0  0  0  0  0  0
   21.3709   18.0886   18.9306 H   0  0  0  0  0  0  0  0  0  0  0  0
   19.5960   18.1356   18.9674 H   0  0  0  0  0  0  0  0  0  0  0  0
  1  2  1  0  0  0  0
  1  3  2  0  0  0  0
  1  4  1  0  0  0  0
  4  5  1  0  0  0  0
  4  6  1  0  0  0  0
  4  7  1  0  0  0  0
  7  8  1  0  0  0  0
  7  9  1  0  0  0  0
  7 10  1  0  0  0  0
 10 11  1  0  0  0  0
 10 12  1  0  0  0  0
 10 13  1  0  0  0  0
 13 14  1  0  0  0  0
 13 15  1  0  0  0  0
 13 16  1  0  0  0  0
 16 17  1  0  0  0  0
 16 18  1  0  0  0  0
 16 19  1  0  0  0  0
 19 20  1  0  0  0  0
 19 21  1  0  0  0  0
 19 22  1  0  0  0  0
 22 23  1  0  0  0  0
 22 24  1  0  0  0  0
 22 25  1  0  0  0  0
M  END
> <VM2 Rank>
16

> <Conf_Id>
972

> <Probability>
1.24

> <Sum Probability>
75.09

> <Delta G>
1.756

> <G>
-6.207

> <E>
-30.843

> <-TS>
24.637

> <U+W>
-51.411

> <U>
7.389

> <W>
-58.800

> <W(PB)>
-61.266

> <W(SA)>
2.466

> <Valence>
8.557

> <Coulomb>
-2.278

> <VdW>
1.110

> <VdW6>
-9.029

> <VdW12>
10.139

> <Bond>
0.192

> <Angle>
2.716

> <Pdih>
5.648

> <Idih>
0.001

> <Tether>
0.000

$$$$
VeraChem MOL file


 25 24  0  0  0  0  0  0  0  0999 V2000     
   20.1300   19.3383   27.8293 C   0  0  0  0  0  0  0  0  0  0  0  0
   21.0194   20.1667   27.8666 O   0  5  0  0  0  0  0  0  0  0  0  0
   19.6101   18.8772   28.8259 O   0  0  0  0  0  0  0  0  0  0  0  0
   19.6204   18.8328   26.4787 C   0  0  0  0  0  0  0  0  0  0  0  0
   18.5433   19.0335   26.4398 H   0  0  0  0  0  0  0  0  0  0  0  0
   19.7445   17.7435   26.4694 H   0  0  0  0  0  0  0  0  0  0  0  0
   20.3144   19.4505   25.2356 C   0  0  0  0  0  0  0  0  0  0  0  0
   20.1917   20.5424   25.2547 H   0  0  0  0  0  0  0  0  0  0  0  0
   21.3940   19.2512   25.2842 H   0  0  0  0  0  0  0  0  0  0  0  0
   19.7407   18.8862   23.9177 C   0  0  0  0  0  0  0  0  0  0  0  0
   18.6614   19.0866   23.8713 H   0  0  0  0  0  0  0  0  0  0  0  0
   19.8644   17.7946   23.9009 H   0  0  0  0  0  0  0  0  0  0  0  0
   20.4325   19.5021   22.6825 C   0  0  0  0  0  0  0  0  0  0  0  0
   20.3089   20.5937   22.6991 H   0  0  0  0  0  0  0  0  0  0  0  0
   21.5118   19.3018   22.7286 H   0  0  0  0  0  0  0  0  0  0  0  0
   19.8593   18.9382   21.3644 C   0  0  0  0  0  0  0  0  0  0  0  0
   18.7800   19.1385   21.3181 H   0  0  0  0  0  0  0  0  0  0  0  0
   19.9829   17.8466   21.3476 H   0  0  0  0  0  0  0  0  0  0  0  0
   20.5507   19.5538   20.1298 C   0  0  0  0  0  0  0  0  0  0  0  0
   20.4275   20.6457   20.1421 H   0  0  0  0  0  0  0  0  0  0  0  0
   21.6304   19.3539   20.1716 H   0  0  0  0  0  0  0  0  0  0  0  0
   19.9755   18.9883   18.8156 C   0  0  0  0  0  0  0  0  0  0  0  0
   18.9018   19.2019   18.7326 H   0  0  0  0  0  0  0  0  0  0  0  0
   20.4782   19.4365   17.9487 H   0  0  0  0  0  0  0  0  0  0  0  0
   20.1138   17.9004   18.7624 H   0  0  0  0  0  0  0  0  0  0  0  0
  1  2  1  0  0  0  0
  1  3  2  0  0  0  0
  1  4  1  0  0  0  0
  4  5  1  0  0  0  0
  4  6  1  0  0  0  0
  4  7  1  0  0  0  0
  7  8  1  0  0  0  0
  7  9  1  0  0  0  0
  7 10  1  0  0  0  0
 10 11  1  0  0  0  0
 10 12  1  0  0  0  0
 10 13  1  0  0  0  0
 13 14  1  0  0  0  0
 13 15  1  0  0  0  0
 13 16  1  0  0  0  0
 16 17  1  0  0  0  0
 16 18  1  0  0  0  0
 16 19  1  0  0  0  0
 19 20  1  0  0  0  0
 19 21  1  0  0  0  0
 19 22  1  0  0  0  0
 22 23  1  0  0  0  0
 22 24  1  0  0  0  0
 22 25  1  0  0  0  0
M  END
> <VM2 Rank>
17

> <Conf_Id>
0

> <Probability>
1.11

> <Sum Probability>
76.21

> <Delta G>
1.818

> <G>
-6.144

> <E>
-31.062

> <-TS>
24.917

> <U+W>
-51.629

> <U>
6.586

> <W>
-58.216

> <W(PB)>
-60.757

> <W(SA)>
2.541

> <Valence>
8.027

> <Coulomb>
-2.892

> <VdW>
1.451

> <VdW6>
-7.931

> <VdW12>
9.383

> <Bond>
0.149

> <Angle>
2.726

> <Pdih>
5.152

> <Idih>
0.000

> <Tether>
0.000

$$$$
VeraChem MOL file


 25 24  0  0  0  0  0  0  0  0999 V2000     
   19.6154   19.4347   27.0509 C   0  0  0  0  0  0  0  0  0  0  0  0
   20.1491   19.2816   28.1319 O   0  5  0  0  0  0  0  0  0  0  0  0
   18.6448   20.1441   26.8739 O   0  0  0  0  0  0  0  0  0  0  0  0
   20.2104   18.7142   25.8464 C   0  0  0  0  0  0  0  0  0  0  0  0
   19.3872   18.4660   25.1668 H   0  0  0  0  0  0  0  0  0  0  0  0
   20.6432   17.7687   26.1940 H   0  0  0  0  0  0  0  0  0  0  0  0
   21.2854   19.5580   25.1137 C   0  0  0  0  0  0  0  0  0  0  0  0
   20.8317   20.4850   24.7388 H   0  0  0  0  0  0  0  0  0  0  0  0
   22.0479   19.8671   25.8419 H   0  0  0  0  0  0  0  0  0  0  0  0
   21.9862   18.8004   23.9579 C   0  0  0  0  0  0  0  0  0  0  0  0
   22.5328   17.9435   24.3748 H   0  0  0  0  0  0  0  0  0  0  0  0
   22.7467   19.4581   23.5153 H   0  0  0  0  0  0  0  0  0  0  0  0
   21.0482   18.2918   22.8343 C   0  0  0  0  0  0  0  0  0  0  0  0
   21.6584   17.7666   22.0869 H   0  0  0  0  0  0  0  0  0  0  0  0
   20.3516   17.5445   23.2363 H   0  0  0  0  0  0  0  0  0  0  0  0
   20.2564   19.4197   22.1331 C   0  0  0  0  0  0  0  0  0  0  0  0
   20.9534   20.1888   21.7733 H   0  0  0  0  0  0  0  0  0  0  0  0
   19.5839   19.9061   22.8519 H   0  0  0  0  0  0  0  0  0  0  0  0
   19.4251   18.8822   20.9492 C   0  0  0  0  0  0  0  0  0  0  0  0
   20.0889   18.3993   20.2187 H   0  0  0  0  0  0  0  0  0  0  0  0
   18.7285   18.1111   21.3064 H   0  0  0  0  0  0  0  0  0  0  0  0
   18.6319   20.0074   20.2548 C   0  0  0  0  0  0  0  0  0  0  0  0
   19.3070   20.7781   19.8605 H   0  0  0  0  0  0  0  0  0  0  0  0
   18.0471   19.6078   19.4161 H   0  0  0  0  0  0  0  0  0  0  0  0
   17.9358   20.4871   20.9553 H   0  0  0  0  0  0  0  0  0  0  0  0
  1  2  1  0  0  0  0
  1  3  2  0  0  0  0
  1  4  1  0  0  0  0
  4  5  1  0  0  0  0
  4  6  1  0  0  0  0
  4  7  1  0  0  0  0
  7  8  1  0  0  0  0
  7  9  1  0  0  0  0
  7 10  1  0  0  0  0
 10 11  1  0  0  0  0
 10 12  1  0  0  0  0
 10 13  1  0  0  0  0
 13 14  1  0  0  0  0
 13 15  1  0  0  0  0
 13 16  1  0  0  0  0
 16 17  1  0  0  0  0
 16 18  1  0  0  0  0
 16 19  1  0  0  0  0
 19 20  1  0  0  0  0
 19 21  1  0  0  0  0
 19 22  1  0  0  0  0
 22 23  1  0  0  0  0
 22 24  1  0  0  0  0
 22 25  1  0  0  0  0
M  END
> <VM2 Rank>
18

> <Conf_Id>
781

> <Probability>
1.11

> <Sum Probability>
77.32

> <Delta G>
1.821

> <G>
-6.141

> <E>
-30.984

> <-TS>
24.843

> <U+W>
-51.551

> <U>
8.114

> <W>
-59.665

> <W(PB)>
-62.138

> <W(SA)>
2.473

> <Valence>
8.487

> <Coulomb>
-1.260

> <VdW>
0.887

> <VdW6>
-9.447

> <VdW12>
10.334

> <Bond>
0.199

> <Angle>
2.915

> <Pdih>
5.373

> <Idih>
0.001

> <Tether>
0.000

$$$$
VeraChem MOL file


 25 24  0  0  0  0  0  0  0  0999 V2000     
   20.1521   19.4755   27.5760 C   0  0  0  0  0  0  0  0  0  0  0  0
   21.2358   19.8744   27.9541 O   0  5  0  0  0  0  0  0  0  0  0  0
   19.3548   18.9080   28.2965 O   0  0  0  0  0  0  0  0  0  0  0  0
   19.7818   19.6766   26.1109 C   0  0  0  0  0  0  0  0  0  0  0  0
   20.2380   20.6157   25.7788 H   0  0  0  0  0  0  0  0  0  0  0  0
   18.6943   19.8027   26.0494 H   0  0  0  0  0  0  0  0  0  0  0  0
   20.2357   18.4976   25.2110 C   0  0  0  0  0  0  0  0  0  0  0  0
   21.3307   18.4118   25.2420 H   0  0  0  0  0  0  0  0  0  0  0  0
   19.8399   17.5628   25.6315 H   0  0  0  0  0  0  0  0  0  0  0  0
   19.7615   18.6184   23.7429 C   0  0  0  0  0  0  0  0  0  0  0  0
   18.6674   18.7131   23.7163 H   0  0  0  0  0  0  0  0  0  0  0  0
   20.0054   17.6794   23.2301 H   0  0  0  0  0  0  0  0  0  0  0  0
   20.4075   19.8034   22.9833 C   0  0  0  0  0  0  0  0  0  0  0  0
   20.1648   20.7421   23.4971 H   0  0  0  0  0  0  0  0  0  0  0  0
   21.5016   19.7082   23.0086 H   0  0  0  0  0  0  0  0  0  0  0  0
   19.9324   19.9275   21.5157 C   0  0  0  0  0  0  0  0  0  0  0  0
   20.3218   20.8685   21.1038 H   0  0  0  0  0  0  0  0  0  0  0  0
   18.8370   20.0072   21.4888 H   0  0  0  0  0  0  0  0  0  0  0  0
   20.3931   18.7597   20.6140 C   0  0  0  0  0  0  0  0  0  0  0  0
   21.4834   18.6443   20.6853 H   0  0  0  0  0  0  0  0  0  0  0  0
   19.9477   17.8169   20.9569 H   0  0  0  0  0  0  0  0  0  0  0  0
   19.9983   18.9929   19.1416 C   0  0  0  0  0  0  0  0  0  0  0  0
   20.4592   19.9096   18.7511 H   0  0  0  0  0  0  0  0  0  0  0  0
   20.3291   18.1543   18.5151 H   0  0  0  0  0  0  0  0  0  0  0  0
   18.9093   19.0851   19.0372 H   0  0  0  0  0  0  0  0  0  0  0  0
  1  2  1  0  0  0  0
  1  3  2  0  0  0  0
  1  4  1  0  0  0  0
  4  5  1  0  0  0  0
  4  6  1  0  0  0  0
  4  7  1  0  0  0  0
  7  8  1  0  0  0  0
  7  9  1  0  0  0  0
  7 10  1  0  0  0  0
 10 11  1  0  0  0  0
 10 12  1  0  0  0  0
 10 13  1  0  0  0  0
 13 14  1  0  0  0  0
 13 15  1  0  0  0  0
 13 16  1  0  0  0  0
 16 17  1  0  0  0  0
 16 18  1  0  0  0  0
 16 19  1  0  0  0  0
 19 20  1  0  0  0  0
 19 21  1  0  0  0  0
 19 22  1  0  0  0  0
 22 23  1  0  0  0  0
 22 24  1  0  0  0  0
 22 25  1  0  0  0  0
M  END
> <VM2 Rank>
19

> <Conf_Id>
727

> <Probability>
1.10

> <Sum Probability>
78.42

> <Delta G>
1.824

> <G>
-6.138

> <E>
-30.686

> <-TS>
24.548

> <U+W>
-51.254

> <U>
7.507

> <W>
-58.760

> <W(PB)>
-61.242

> <W(SA)>
2.482

> <Valence>
8.668

> <Coulomb>
-2.355

> <VdW>
1.194

> <VdW6>
-8.929

> <VdW12>
10.123

> <Bond>
0.201

> <Angle>
2.816

> <Pdih>
5.650

> <Idih>
0.001

> <Tether>
0.000

$$$$
VeraChem MOL file


 25 24  0  0  0  0  0  0  0  0999 V2000     
   20.2734   18.9846   27.4364 C   0  0  0  0  0  0  0  0  0  0  0  0
   21.4444   18.8456   27.7300 O   0  5  0  0  0  0  0  0  0  0  0  0
   19.3743   18.3293   27.9252 O   0  0  0  0  0  0  0  0  0  0  0  0
   19.9145   20.0245   26.3810 C   0  0  0  0  0  0  0  0  0  0  0  0
   20.6297   20.8519   26.4609 H   0  0  0  0  0  0  0  0  0  0  0  0
   18.9237   20.4273   26.6231 H   0  0  0  0  0  0  0  0  0  0  0  0
   19.9218   19.4491   24.9432 C   0  0  0  0  0  0  0  0  0  0  0  0
   20.9163   19.0348   24.7317 H   0  0  0  0  0  0  0  0  0  0  0  0
   19.2080   18.6160   24.8821 H   0  0  0  0  0  0  0  0  0  0  0  0
   19.5590   20.5246   23.8931 C   0  0  0  0  0  0  0  0  0  0  0  0
   20.3019   21.3336   23.9190 H   0  0  0  0  0  0  0  0  0  0  0  0
   18.5958   20.9784   24.1639 H   0  0  0  0  0  0  0  0  0  0  0  0
   19.4507   19.9666   22.4541 C   0  0  0  0  0  0  0  0  0  0  0  0
   18.6954   19.1702   22.4320 H   0  0  0  0  0  0  0  0  0  0  0  0
   19.0814   20.7657   21.7970 H   0  0  0  0  0  0  0  0  0  0  0  0
   20.7953   19.4378   21.8974 C   0  0  0  0  0  0  0  0  0  0  0  0
   21.1183   18.5565   22.4668 H   0  0  0  0  0  0  0  0  0  0  0  0
   21.5688   20.2043   22.0412 H   0  0  0  0  0  0  0  0  0  0  0  0
   20.7347   19.0753   20.3952 C   0  0  0  0  0  0  0  0  0  0  0  0
   20.4297   19.9557   19.8128 H   0  0  0  0  0  0  0  0  0  0  0  0
   21.7458   18.8131   20.0544 H   0  0  0  0  0  0  0  0  0  0  0  0
   19.7851   17.8965   20.0905 C   0  0  0  0  0  0  0  0  0  0  0  0
   20.0547   17.0119   20.6819 H   0  0  0  0  0  0  0  0  0  0  0  0
   18.7422   18.1549   20.3131 H   0  0  0  0  0  0  0  0  0  0  0  0
   19.8405   17.6232   19.0288 H   0  0  0  0  0  0  0  0  0  0  0  0
  1  2  1  0  0  0  0
  1  3  2  0  0  0  0
  1  4  1  0  0  0  0
  4  5  1  0  0  0  0
  4  6  1  0  0  0  0
  4  7  1  0  0  0  0
  7  8  1  0  0  0  0
  7  9  1  0  0  0  0
  7 10  1  0  0  0  0
 10 11  1  0  0  0  0
 10 12  1  0  0  0  0
 10 13  1  0  0  0  0
 13 14  1  0  0  0  0
 13 15  1  0  0  0  0
 13 16  1  0  0  0  0
 16 17  1  0  0  0  0
 16 18  1  0  0  0  0
 16 19  1  0  0  0  0
 19 20  1  0  0  0  0
 19 21  1  0  0  0  0
 19 22  1  0  0  0  0
 22 23  1  0  0  0  0
 22 24  1  0  0  0  0
 22 25  1  0  0  0  0
M  END
> <VM2 Rank>
20

> <Conf_Id>
492

> <Probability>
1.08

> <Sum Probability>
79.50

> <Delta G>
1.837

> <G>
-6.125

> <E>
-30.766

> <-TS>
24.641

> <U+W>
-51.334

> <U>
7.838

> <W>
-59.172

> <W(PB)>
-61.677

> <W(SA)>
2.505

> <Valence>
8.536

> <Coulomb>
-1.810

> <VdW>
1.112

> <VdW6>
-8.987

> <VdW12>
10.099

> <Bond>
0.183

> <Angle>
2.701

> <Pdih>
5.652

> <Idih>
0.001

> <Tether>
0.000

$$$$
VeraChem MOL file


 25 24  0  0  0  0  0  0  0  0999 V2000     
   20.0838   18.9727   27.4386 C   0  0  0  0  0  0  0  0  0  0  0  0
   21.0687   18.4351   27.9051 O   0  5  0  0  0  0  0  0  0  0  0  0
   18.9464   18.6895   27.7593 O   0  0  0  0  0  0  0  0  0  0  0  0
   20.2856   20.0478   26.3767 C   0  0  0  0  0  0  0  0  0  0  0  0
   21.2236   20.5716   26.5966 H   0  0  0  0  0  0  0  0  0  0  0  0
   19.4747   20.7795   26.4742 H   0  0  0  0  0  0  0  0  0  0  0  0
   20.3172   19.4740   24.9387 C   0  0  0  0  0  0  0  0  0  0  0  0
   21.1280   18.7366   24.8599 H   0  0  0  0  0  0  0  0  0  0  0  0
   19.3776   18.9381   24.7496 H   0  0  0  0  0  0  0  0  0  0  0  0
   20.5182   20.5849   23.8820 C   0  0  0  0  0  0  0  0  0  0  0  0
   21.4230   21.1560   24.1312 H   0  0  0  0  0  0  0  0  0  0  0  0
   19.6807   21.2945   23.9262 H   0  0  0  0  0  0  0  0  0  0  0  0
   20.6623   20.0427   22.4401 C   0  0  0  0  0  0  0  0  0  0  0  0
   20.9131   20.8808   21.7758 H   0  0  0  0  0  0  0  0  0  0  0  0
   21.5109   19.3473   22.3993 H   0  0  0  0  0  0  0  0  0  0  0  0
   19.3822   19.3485   21.9139 C   0  0  0  0  0  0  0  0  0  0  0  0
   18.5220   20.0120   22.0770 H   0  0  0  0  0  0  0  0  0  0  0  0
   19.1858   18.4344   22.4892 H   0  0  0  0  0  0  0  0  0  0  0  0
   19.4528   18.9946   20.4102 C   0  0  0  0  0  0  0  0  0  0  0  0
   18.4751   18.6068   20.0926 H   0  0  0  0  0  0  0  0  0  0  0  0
   19.6310   19.9056   19.8223 H   0  0  0  0  0  0  0  0  0  0  0  0
   20.5358   17.9442   20.0814 C   0  0  0  0  0  0  0  0  0  0  0  0
   21.5428   18.3320   20.2801 H   0  0  0  0  0  0  0  0  0  0  0  0
   20.3935   17.0334   20.6775 H   0  0  0  0  0  0  0  0  0  0  0  0
   20.4904   17.6648   19.0209 H   0  0  0  0  0  0  0  0  0  0  0  0
  1  2  1  0  0  0  0
  1  3  2  0  0  0  0
  1  4  1  0  0  0  0
  4  5  1  0  0  0  0
  4  6  1  0  0  0  0
  4  7  1  0  0  0  0
  7  8  1  0  0  0  0
  7  9  1  0  0  0  0
  7 10  1  0  0  0  0
 10 11  1  0  0  0  0
 10 12  1  0  0  0  0
 10 13  1  0  0  0  0
 13 14  1  0  0  0  0
 13 15  1  0  0  0  0
 13 16  1  0  0  0  0
 16 17  1  0  0  0  0
 16 18  1  0  0  0  0
 16 19  1  0  0  0  0
 19 20  1  0  0  0  0
 19 21  1  0  0  0  0
 19 22  1  0  0  0  0
 22 23  1  0  0  0  0
 22 24  1  0  0  0  0
 22 25  1  0  0  0  0
M  END
> <VM2 Rank>
21

> <Conf_Id>
190

> <Probability>
1.08

> <Sum Probability>
80.58

> <Delta G>
1.838

> <G>
-6.124

> <E>
-30.766

> <-TS>
24.642

> <U+W>
-51.334

> <U>
7.838

> <W>
-59.172

> <W(PB)>
-61.666

> <W(SA)>
2.494

> <Valence>
8.536

> <Coulomb>
-1.810

> <VdW>
1.112

> <VdW6>
-8.988

> <VdW12>
10.100

> <Bond>
0.183

> <Angle>
2.701

> <Pdih>
5.652

> <Idih>
0.001

> <Tether>
0.000

$$$$
VeraChem MOL file


 25 24  0  0  0  0  0  0  0  0999 V2000     
   20.6711   19.5016   27.0383 C   0  0  0  0  0  0  0  0  0  0  0  0
   21.5393   20.3284   26.8398 O   0  5  0  0  0  0  0  0  0  0  0  0
   20.1868   19.2833   28.1313 O   0  0  0  0  0  0  0  0  0  0  0  0
   20.1443   18.7100   25.8469 C   0  0  0  0  0  0  0  0  0  0  0  0
   19.8428   17.7178   26.2029 H   0  0  0  0  0  0  0  0  0  0  0  0
   20.9763   18.5671   25.1479 H   0  0  0  0  0  0  0  0  0  0  0  0
   18.9544   19.4099   25.1407 C   0  0  0  0  0  0  0  0  0  0  0  0
   18.1760   19.6210   25.8869 H   0  0  0  0  0  0  0  0  0  0  0  0
   19.2783   20.3865   24.7569 H   0  0  0  0  0  0  0  0  0  0  0  0
   18.3285   18.5683   24.0001 C   0  0  0  0  0  0  0  0  0  0  0  0
   17.4810   19.1240   23.5761 H   0  0  0  0  0  0  0  0  0  0  0  0
   17.9043   17.6498   24.4282 H   0  0  0  0  0  0  0  0  0  0  0  0
   19.2972   18.1807   22.8545 C   0  0  0  0  0  0  0  0  0  0  0  0
   20.0914   17.5277   23.2391 H   0  0  0  0  0  0  0  0  0  0  0  0
   18.7411   17.5819   22.1204 H   0  0  0  0  0  0  0  0  0  0  0  0
   19.9241   19.3986   22.1373 C   0  0  0  0  0  0  0  0  0  0  0  0
   20.5462   19.9667   22.8413 H   0  0  0  0  0  0  0  0  0  0  0  0
   19.1276   20.0732   21.7949 H   0  0  0  0  0  0  0  0  0  0  0  0
   20.7892   18.9688   20.9337 C   0  0  0  0  0  0  0  0  0  0  0  0
   21.5854   18.2921   21.2735 H   0  0  0  0  0  0  0  0  0  0  0  0
   20.1749   18.4054   20.2177 H   0  0  0  0  0  0  0  0  0  0  0  0
   21.4182   20.1843   20.2234 C   0  0  0  0  0  0  0  0  0  0  0  0
   22.0294   19.8606   19.3709 H   0  0  0  0  0  0  0  0  0  0  0  0
   20.6425   20.8634   19.8460 H   0  0  0  0  0  0  0  0  0  0  0  0
   22.0641   20.7487   20.9087 H   0  0  0  0  0  0  0  0  0  0  0  0
  1  2  1  0  0  0  0
  1  3  2  0  0  0  0
  1  4  1  0  0  0  0
  4  5  1  0  0  0  0
  4  6  1  0  0  0  0
  4  7  1  0  0  0  0
  7  8  1  0  0  0  0
  7  9  1  0  0  0  0
  7 10  1  0  0  0  0
 10 11  1  0  0  0  0
 10 12  1  0  0  0  0
 10 13  1  0  0  0  0
 13 14  1  0  0  0  0
 13 15  1  0  0  0  0
 13 16  1  0  0  0  0
 16 17  1  0  0  0  0
 16 18  1  0  0  0  0
 16 19  1  0  0  0  0
 19 20  1  0  0  0  0
 19 21  1  0  0  0  0
 19 22  1  0  0  0  0
 22 23  1  0  0  0  0
 22 24  1  0  0  0  0
 22 25  1  0  0  0  0
M  END
> <VM2 Rank>
22

> <Conf_Id>
1017

> <Probability>
1.08

> <Sum Probability>
81.65

> <Delta G>
1.839

> <G>
-6.123

> <E>
-30.967

> <-TS>
24.844

> <U+W>
-51.535

> <U>
8.115

> <W>
-59.650

> <W(PB)>
-62.101

> <W(SA)>
2.451

> <Valence>
8.487

> <Coulomb>
-1.260

> <VdW>
0.887

> <VdW6>
-9.448

> <VdW12>
10.335

> <Bond>
0.199

> <Angle>
2.915

> <Pdih>
5.372

> <Idih>
0.001

> <Tether>
0.000

$$$$
VeraChem MOL file


 25 24  0  0  0  0  0  0  0  0999 V2000     
   20.0884   19.1106   27.5395 C   0  0  0  0  0  0  0  0  0  0  0  0
   21.1573   18.9463   28.0936 O   0  5  0  0  0  0  0  0  0  0  0  0
   19.0709   18.5241   27.8516 O   0  0  0  0  0  0  0  0  0  0  0  0
   20.0251   20.0914   26.3741 C   0  0  0  0  0  0  0  0  0  0  0  0
   20.7461   20.8951   26.5661 H   0  0  0  0  0  0  0  0  0  0  0  0
   19.0272   20.5460   26.3652 H   0  0  0  0  0  0  0  0  0  0  0  0
   20.3196   19.4227   25.0086 C   0  0  0  0  0  0  0  0  0  0  0  0
   21.3180   18.9649   25.0371 H   0  0  0  0  0  0  0  0  0  0  0  0
   19.5989   18.6099   24.8502 H   0  0  0  0  0  0  0  0  0  0  0  0
   20.2442   20.4384   23.8449 C   0  0  0  0  0  0  0  0  0  0  0  0
   20.9125   21.2820   24.0656 H   0  0  0  0  0  0  0  0  0  0  0  0
   19.2296   20.8548   23.7804 H   0  0  0  0  0  0  0  0  0  0  0  0
   20.6473   19.8421   22.4750 C   0  0  0  0  0  0  0  0  0  0  0  0
   20.7072   20.6652   21.7518 H   0  0  0  0  0  0  0  0  0  0  0  0
   21.6563   19.4132   22.5430 H   0  0  0  0  0  0  0  0  0  0  0  0
   19.6580   18.7711   21.9527 C   0  0  0  0  0  0  0  0  0  0  0  0
   18.6484   19.1992   21.8879 H   0  0  0  0  0  0  0  0  0  0  0  0
   19.6005   17.9446   22.6723 H   0  0  0  0  0  0  0  0  0  0  0  0
   20.0589   18.1819   20.5799 C   0  0  0  0  0  0  0  0  0  0  0  0
   21.0730   17.7629   20.6377 H   0  0  0  0  0  0  0  0  0  0  0  0
   19.3894   17.3417   20.3493 H   0  0  0  0  0  0  0  0  0  0  0  0
   19.9834   19.2055   19.4261 C   0  0  0  0  0  0  0  0  0  0  0  0
   20.7241   20.0053   19.5492 H   0  0  0  0  0  0  0  0  0  0  0  0
   20.1827   18.7147   18.4646 H   0  0  0  0  0  0  0  0  0  0  0  0
   18.9871   19.6632   19.3713 H   0  0  0  0  0  0  0  0  0  0  0  0
  1  2  1  0  0  0  0
  1  3  2  0  0  0  0
  1  4  1  0  0  0  0
  4  5  1  0  0  0  0
  4  6  1  0  0  0  0
  4  7  1  0  0  0  0
  7  8  1  0  0  0  0
  7  9  1  0  0  0  0
  7 10  1  0  0  0  0
 10 11  1  0  0  0  0
 10 12  1  0  0  0  0
 10 13  1  0  0  0  0
 13 14  1  0  0  0  0
 13 15  1  0  0  0  0
 13 16  1  0  0  0  0
 16 17  1  0  0  0  0
 16 18  1  0  0  0  0
 16 19  1  0  0  0  0
 19 20  1  0  0  0  0
 19 21  1  0  0  0  0
 19 22  1  0  0  0  0
 22 23  1  0  0  0  0
 22 24  1  0  0  0  0
 22 25  1  0  0  0  0
M  END
> <VM2 Rank>
23

> <Conf_Id>
163

> <Probability>
1.06

> <Sum Probability>
82.71

> <Delta G>
1.847

> <G>
-6.115

> <E>
-30.674

> <-TS>
24.559

> <U+W>
-51.242

> <U>
7.805

> <W>
-59.047

> <W(PB)>
-61.531

> <W(SA)>
2.484

> <Valence>
8.642

> <Coulomb>
-2.028

> <VdW>
1.191

> <VdW6>
-8.891

> <VdW12>
10.082

> <Bond>
0.190

> <Angle>
2.795

> <Pdih>
5.656

> <Idih>
0.001

> <Tether>
0.000

$$$$
VeraChem MOL file


 25 24  0  0  0  0  0  0  0  0999 V2000     
   20.2532   19.1207   27.5376 C   0  0  0  0  0  0  0  0  0  0  0  0
   21.3415   18.6628   27.8252 O   0  5  0  0  0  0  0  0  0  0  0  0
   19.2254   18.8281   28.1160 O   0  0  0  0  0  0  0  0  0  0  0  0
   20.1696   20.1003   26.3724 C   0  0  0  0  0  0  0  0  0  0  0  0
   21.1041   20.6733   26.3413 H   0  0  0  0  0  0  0  0  0  0  0  0
   19.3605   20.8102   26.5820 H   0  0  0  0  0  0  0  0  0  0  0  0
   19.9278   19.3987   25.0131 C   0  0  0  0  0  0  0  0  0  0  0  0
   20.7385   18.6797   24.8371 H   0  0  0  0  0  0  0  0  0  0  0  0
   18.9936   18.8225   25.0637 H   0  0  0  0  0  0  0  0  0  0  0  0
   19.8522   20.4145   23.8494 C   0  0  0  0  0  0  0  0  0  0  0  0
   20.8067   20.9514   23.7622 H   0  0  0  0  0  0  0  0  0  0  0  0
   19.0912   21.1706   24.0866 H   0  0  0  0  0  0  0  0  0  0  0  0
   19.4934   19.7716   22.4883 C   0  0  0  0  0  0  0  0  0  0  0  0
   18.5460   19.2231   22.5788 H   0  0  0  0  0  0  0  0  0  0  0  0
   19.3171   20.5803   21.7678 H   0  0  0  0  0  0  0  0  0  0  0  0
   20.5936   18.8282   21.9420 C   0  0  0  0  0  0  0  0  0  0  0  0
   20.7676   18.0159   22.6589 H   0  0  0  0  0  0  0  0  0  0  0  0
   21.5417   19.3760   21.8548 H   0  0  0  0  0  0  0  0  0  0  0  0
   20.2361   18.1928   20.5779 C   0  0  0  0  0  0  0  0  0  0  0  0
   20.9975   17.4400   20.3309 H   0  0  0  0  0  0  0  0  0  0  0  0
   19.2821   17.6536   20.6582 H   0  0  0  0  0  0  0  0  0  0  0  0
   20.1602   19.2164   19.4241 C   0  0  0  0  0  0  0  0  0  0  0  0
   21.0919   19.7918   19.3472 H   0  0  0  0  0  0  0  0  0  0  0  0
   20.0002   18.7037   18.4667 H   0  0  0  0  0  0  0  0  0  0  0  0
   19.3308   19.9203   19.5652 H   0  0  0  0  0  0  0  0  0  0  0  0
  1  2  1  0  0  0  0
  1  3  2  0  0  0  0
  1  4  1  0  0  0  0
  4  5  1  0  0  0  0
  4  6  1  0  0  0  0
  4  7  1  0  0  0  0
  7  8  1  0  0  0  0
  7  9  1  0  0  0  0
  7 10  1  0  0  0  0
 10 11  1  0  0  0  0
 10 12  1  0  0  0  0
 10 13  1  0  0  0  0
 13 14  1  0  0  0  0
 13 15  1  0  0  0  0
 13 16  1  0  0  0  0
 16 17  1  0  0  0  0
 16 18  1  0  0  0  0
 16 19  1  0  0  0  0
 19 20  1  0  0  0  0
 19 21  1  0  0  0  0
 19 22  1  0  0  0  0
 22 23  1  0  0  0  0
 22 24  1  0  0  0  0
 22 25  1  0  0  0  0
M  END
> <VM2 Rank>
24

> <Conf_Id>
1106

> <Probability>
1.05

> <Sum Probability>
83.77

> <Delta G>
1.851

> <G>
-6.111

> <E>
-30.670

> <-TS>
24.558

> <U+W>
-51.237

> <U>
7.805

> <W>
-59.042

> <W(PB)>
-61.534

> <W(SA)>
2.491

> <Valence>
8.642

> <Coulomb>
-2.028

> <VdW>
1.191

> <VdW6>
-8.891

> <VdW12>
10.082

> <Bond>
0.190

> <Angle>
2.795

> <Pdih>
5.656

> <Idih>
0.001

> <Tether>
0.000

$$$$
VeraChem MOL file


 25 24  0  0  0  0  0  0  0  0999 V2000     
   20.1456   19.4751   27.5761 C   0  0  0  0  0  0  0  0  0  0  0  0
   21.0245   19.0140   28.2773 O   0  5  0  0  0  0  0  0  0  0  0  0
   19.0291   19.7344   27.9795 O   0  0  0  0  0  0  0  0  0  0  0  0
   20.4538   19.7192   26.1031 C   0  0  0  0  0  0  0  0  0  0  0  0
   21.5150   19.9816   26.0169 H   0  0  0  0  0  0  0  0  0  0  0  0
   19.8751   20.5927   25.7830 H   0  0  0  0  0  0  0  0  0  0  0  0
   20.1320   18.4911   25.2122 C   0  0  0  0  0  0  0  0  0  0  0  0
   20.6523   17.6143   25.6222 H   0  0  0  0  0  0  0  0  0  0  0  0
   19.0576   18.2676   25.2681 H   0  0  0  0  0  0  0  0  0  0  0  0
   20.5533   18.6687   23.7338 C   0  0  0  0  0  0  0  0  0  0  0  0
   20.4183   17.7056   23.2254 H   0  0  0  0  0  0  0  0  0  0  0  0
   21.6258   18.9007   23.6822 H   0  0  0  0  0  0  0  0  0  0  0  0
   19.7456   19.7615   22.9909 C   0  0  0  0  0  0  0  0  0  0  0  0
   18.6732   19.5290   23.0414 H   0  0  0  0  0  0  0  0  0  0  0  0
   19.8796   20.7240   23.5004 H   0  0  0  0  0  0  0  0  0  0  0  0
   20.1673   19.9424   21.5130 C   0  0  0  0  0  0  0  0  0  0  0  0
   21.2430   20.1595   21.4609 H   0  0  0  0  0  0  0  0  0  0  0  0
   19.6529   20.8262   21.1115 H   0  0  0  0  0  0  0  0  0  0  0  0
   19.8368   18.7245   20.6204 C   0  0  0  0  0  0  0  0  0  0  0  0
   20.4053   17.8458   20.9517 H   0  0  0  0  0  0  0  0  0  0  0  0
   18.7717   18.4726   20.7167 H   0  0  0  0  0  0  0  0  0  0  0  0
   20.1650   19.0033   19.1397 C   0  0  0  0  0  0  0  0  0  0  0  0
   21.2310   19.2319   19.0104 H   0  0  0  0  0  0  0  0  0  0  0  0
   19.9282   18.1288   18.5198 H   0  0  0  0  0  0  0  0  0  0  0  0
   19.5833   19.8541   18.7613 H   0  0  0  0  0  0  0  0  0  0  0  0
  1  2  1  0  0  0  0
  1  3  2  0  0  0  0
  1  4  1  0  0  0  0
  4  5  1  0  0  0  0
  4  6  1  0  0  0  0
  4  7  1  0  0  0  0
  7  8  1  0  0  0  0
  7  9  1  0  0  0  0
  7 10  1  0  0  0  0
 10 11  1  0  0  0  0
 10 12  1  0  0  0  0
 10 13  1  0  0  0  0
 13 14  1  0  0  0  0
 13 15  1  0  0  0  0
 13 16  1  0  0  0  0
 16 17  1  0  0  0  0
 16 18  1  0  0  0  0
 16 19  1  0  0  0  0
 19 20  1  0  0  0  0
 19 21  1  0  0  0  0
 19 22  1  0  0  0  0
 22 23  1  0  0  0  0
 22 24  1  0  0  0  0
 22 25  1  0  0  0  0
M  END
> <VM2 Rank>
25

> <Conf_Id>
539

> <Probability>
1.05

> <Sum Probability>
84.82

> <Delta G>
1.852

> <G>
-6.110

> <E>
-30.659

> <-TS>
24.549

> <U+W>
-51.226

> <U>
7.507

> <W>
-58.733

> <W(PB)>
-61.248

> <W(SA)>
2.515

> <Valence>
8.668

> <Coulomb>
-2.355

> <VdW>
1.194

> <VdW6>
-8.929

> <VdW12>
10.123

> <Bond>
0.201

> <Angle>
2.816

> <Pdih>
5.650

> <Idih>
0.001

> <Tether>
0.000

$$$$
VeraChem MOL file


 25 24  0  0  0  0  0  0  0  0999 V2000     
   19.7039   19.2290   27.2209 C   0  0  0  0  0  0  0  0  0  0  0  0
   20.4102   18.6340   28.0107 O   0  5  0  0  0  0  0  0  0  0  0  0
   18.4894   19.1946   27.2451 O   0  0  0  0  0  0  0  0  0  0  0  0
   20.3792   20.0490   26.1274 C   0  0  0  0  0  0  0  0  0  0  0  0
   21.3134   20.4546   26.5340 H   0  0  0  0  0  0  0  0  0  0  0  0
   19.7310   20.9012   25.8909 H   0  0  0  0  0  0  0  0  0  0  0  0
   20.6653   19.2248   24.8480 C   0  0  0  0  0  0  0  0  0  0  0  0
   21.3081   18.3707   25.1018 H   0  0  0  0  0  0  0  0  0  0  0  0
   19.7190   18.8138   24.4719 H   0  0  0  0  0  0  0  0  0  0  0  0
   21.3433   20.0811   23.7535 C   0  0  0  0  0  0  0  0  0  0  0  0
   22.2463   20.5459   24.1723 H   0  0  0  0  0  0  0  0  0  0  0  0
   20.6814   20.9087   23.4664 H   0  0  0  0  0  0  0  0  0  0  0  0
   21.7513   19.2695   22.4982 C   0  0  0  0  0  0  0  0  0  0  0  0
   22.2575   19.9426   21.7930 H   0  0  0  0  0  0  0  0  0  0  0  0
   22.4985   18.5186   22.7888 H   0  0  0  0  0  0  0  0  0  0  0  0
   20.5899   18.5551   21.7618 C   0  0  0  0  0  0  0  0  0  0  0  0
   20.1408   17.7961   22.4156 H   0  0  0  0  0  0  0  0  0  0  0  0
   21.0086   18.0084   20.9059 H   0  0  0  0  0  0  0  0  0  0  0  0
   19.4950   19.5198   21.2531 C   0  0  0  0  0  0  0  0  0  0  0  0
   19.0084   20.0180   22.1021 H   0  0  0  0  0  0  0  0  0  0  0  0
   19.9514   20.3067   20.6371 H   0  0  0  0  0  0  0  0  0  0  0  0
   18.4254   18.7770   20.4273 C   0  0  0  0  0  0  0  0  0  0  0  0
   17.6537   19.4749   20.0771 H   0  0  0  0  0  0  0  0  0  0  0  0
   18.8718   18.2960   19.5471 H   0  0  0  0  0  0  0  0  0  0  0  0
   17.9334   18.0019   21.0294 H   0  0  0  0  0  0  0  0  0  0  0  0
  1  2  1  0  0  0  0
  1  3  2  0  0  0  0
  1  4  1  0  0  0  0
  4  5  1  0  0  0  0
  4  6  1  0  0  0  0
  4  7  1  0  0  0  0
  7  8  1  0  0  0  0
  7  9  1  0  0  0  0
  7 10  1  0  0  0  0
 10 11  1  0  0  0  0
 10 12  1  0  0  0  0
 10 13  1  0  0  0  0
 13 14  1  0  0  0  0
 13 15  1  0  0  0  0
 13 16  1  0  0  0  0
 16 17  1  0  0  0  0
 16 18  1  0  0  0  0
 16 19  1  0  0  0  0
 19 20  1  0  0  0  0
 19 21  1  0  0  0  0
 19 22  1  0  0  0  0
 22 23  1  0  0  0  0
 22 24  1  0  0  0  0
 22 25  1  0  0  0  0
M  END
> <VM2 Rank>
26

> <Conf_Id>
183

> <Probability>
1.02

> <Sum Probability>
85.84

> <Delta G>
1.871

> <G>
-6.092

> <E>
-30.923

> <-TS>
24.831

> <U+W>
-51.491

> <U>
8.128

> <W>
-59.619

> <W(PB)>
-62.093

> <W(SA)>
2.474

> <Valence>
8.508

> <Coulomb>
-1.299

> <VdW>
0.920

> <VdW6>
-9.370

> <VdW12>
10.290

> <Bond>
0.193

> <Angle>
2.932

> <Pdih>
5.383

> <Idih>
0.000

> <Tether>
0.000

$$$$
VeraChem MOL file


 25 24  0  0  0  0  0  0  0  0999 V2000     
   19.7735   19.5911   27.2105 C   0  0  0  0  0  0  0  0  0  0  0  0
   20.6580   19.9237   27.9745 O   0  5  0  0  0  0  0  0  0  0  0  0
   18.6586   20.0745   27.2198 O   0  0  0  0  0  0  0  0  0  0  0  0
   20.0855   18.5208   26.1707 C   0  0  0  0  0  0  0  0  0  0  0  0
   19.1651   17.9578   25.9743 H   0  0  0  0  0  0  0  0  0  0  0  0
   20.8070   17.8208   26.6086 H   0  0  0  0  0  0  0  0  0  0  0  0
   20.6432   19.1090   24.8512 C   0  0  0  0  0  0  0  0  0  0  0  0
   19.9126   19.8202   24.4433 H   0  0  0  0  0  0  0  0  0  0  0  0
   21.5593   19.6767   25.0647 H   0  0  0  0  0  0  0  0  0  0  0  0
   20.9441   18.0040   23.8124 C   0  0  0  0  0  0  0  0  0  0  0  0
   20.0198   17.4662   23.5641 H   0  0  0  0  0  0  0  0  0  0  0  0
   21.6151   17.2614   24.2654 H   0  0  0  0  0  0  0  0  0  0  0  0
   21.6105   18.5368   22.5189 C   0  0  0  0  0  0  0  0  0  0  0  0
   22.5858   18.9722   22.7758 H   0  0  0  0  0  0  0  0  0  0  0  0
   21.8239   17.6865   21.8569 H   0  0  0  0  0  0  0  0  0  0  0  0
   20.7887   19.5892   21.7324 C   0  0  0  0  0  0  0  0  0  0  0  0
   21.3710   19.8941   20.8523 H   0  0  0  0  0  0  0  0  0  0  0  0
   20.6598   20.4951   22.3389 H   0  0  0  0  0  0  0  0  0  0  0  0
   19.4090   19.0726   21.2660 C   0  0  0  0  0  0  0  0  0  0  0  0
   19.5347   18.1401   20.6988 H   0  0  0  0  0  0  0  0  0  0  0  0
   18.7815   18.8374   22.1359 H   0  0  0  0  0  0  0  0  0  0  0  0
   18.6819   20.1124   20.3896 C   0  0  0  0  0  0  0  0  0  0  0  0
   19.2653   20.3448   19.4891 H   0  0  0  0  0  0  0  0  0  0  0  0
   17.7029   19.7321   20.0702 H   0  0  0  0  0  0  0  0  0  0  0  0
   18.5187   21.0463   20.9432 H   0  0  0  0  0  0  0  0  0  0  0  0
  1  2  1  0  0  0  0
  1  3  2  0  0  0  0
  1  4  1  0  0  0  0
  4  5  1  0  0  0  0
  4  6  1  0  0  0  0
  4  7  1  0  0  0  0
  7  8  1  0  0  0  0
  7  9  1  0  0  0  0
  7 10  1  0  0  0  0
 10 11  1  0  0  0  0
 10 12  1  0  0  0  0
 10 13  1  0  0  0  0
 13 14  1  0  0  0  0
 13 15  1  0  0  0  0
 13 16  1  0  0  0  0
 16 17  1  0  0  0  0
 16 18  1  0  0  0  0
 16 19  1  0  0  0  0
 19 20  1  0  0  0  0
 19 21  1  0  0  0  0
 19 22  1  0  0  0  0
 22 23  1  0  0  0  0
 22 24  1  0  0  0  0
 22 25  1  0  0  0  0
M  END
> <VM2 Rank>
27

> <Conf_Id>
78

> <Probability>
0.96

> <Sum Probability>
86.80

> <Delta G>
1.909

> <G>
-6.054

> <E>
-30.885

> <-TS>
24.831

> <U+W>
-51.453

> <U>
8.128

> <W>
-59.581

> <W(PB)>
-62.037

> <W(SA)>
2.456

> <Valence>
8.508

> <Coulomb>
-1.299

> <VdW>
0.920

> <VdW6>
-9.370

> <VdW12>
10.290

> <Bond>
0.192

> <Angle>
2.932

> <Pdih>
5.383

> <Idih>
0.001

> <Tether>
0.000

$$$$
VeraChem MOL file


 25 24  0  0  0  0  0  0  0  0999 V2000     
   20.4111   19.2566   27.5224 C   0  0  0  0  0  0  0  0  0  0  0  0
   21.5114   19.6715   27.8287 O   0  5  0  0  0  0  0  0  0  0  0  0
   19.4336   19.3481   28.2386 O   0  0  0  0  0  0  0  0  0  0  0  0
   20.2428   18.6042   26.1549 C   0  0  0  0  0  0  0  0  0  0  0  0
   19.4698   17.8310   26.2391 H   0  0  0  0  0  0  0  0  0  0  0  0
   21.1819   18.0978   25.9013 H   0  0  0  0  0  0  0  0  0  0  0  0
   19.8661   19.6183   25.0469 C   0  0  0  0  0  0  0  0  0  0  0  0
   18.9313   20.1260   25.3224 H   0  0  0  0  0  0  0  0  0  0  0  0
   20.6433   20.3926   24.9840 H   0  0  0  0  0  0  0  0  0  0  0  0
   19.7023   18.9336   23.6726 C   0  0  0  0  0  0  0  0  0  0  0  0
   18.9230   18.1620   23.7366 H   0  0  0  0  0  0  0  0  0  0  0  0
   20.6391   18.4244   23.4110 H   0  0  0  0  0  0  0  0  0  0  0  0
   19.3327   19.9507   22.5685 C   0  0  0  0  0  0  0  0  0  0  0  0
   18.4370   20.5052   22.8798 H   0  0  0  0  0  0  0  0  0  0  0  0
   20.1321   20.6964   22.4681 H   0  0  0  0  0  0  0  0  0  0  0  0
   19.0457   19.2947   21.1942 C   0  0  0  0  0  0  0  0  0  0  0  0
   18.7420   20.0784   20.4869 H   0  0  0  0  0  0  0  0  0  0  0  0
   18.1806   18.6251   21.2938 H   0  0  0  0  0  0  0  0  0  0  0  0
   20.2241   18.4982   20.5812 C   0  0  0  0  0  0  0  0  0  0  0  0
   20.4775   17.6431   21.2216 H   0  0  0  0  0  0  0  0  0  0  0  0
   19.8968   18.0722   19.6228 H   0  0  0  0  0  0  0  0  0  0  0  0
   21.4832   19.3581   20.3380 C   0  0  0  0  0  0  0  0  0  0  0  0
   21.9137   19.7107   21.2837 H   0  0  0  0  0  0  0  0  0  0  0  0
   22.2539   18.7731   19.8196 H   0  0  0  0  0  0  0  0  0  0  0  0
   21.2479   20.2330   19.7182 H   0  0  0  0  0  0  0  0  0  0  0  0
  1  2  1  0  0  0  0
  1  3  2  0  0  0  0
  1  4  1  0  0  0  0
  4  5  1  0  0  0  0
  4  6  1  0  0  0  0
  4  7  1  0  0  0  0
  7  8  1  0  0  0  0
  7  9  1  0  0  0  0
  7 10  1  0  0  0  0
 10 11  1  0  0  0  0
 10 12  1  0  0  0  0
 10 13  1  0  0  0  0
 13 14  1  0  0  0  0
 13 15  1  0  0  0  0
 13 16  1  0  0  0  0
 16 17  1  0  0  0  0
 16 18  1  0  0  0  0
 16 19  1  0  0  0  0
 19 20  1  0  0  0  0
 19 21  1  0  0  0  0
 19 22  1  0  0  0  0
 22 23  1  0  0  0  0
 22 24  1  0  0  0  0
 22 25  1  0  0  0  0
M  END
> <VM2 Rank>
28

> <Conf_Id>
1057

> <Probability>
0.90

> <Sum Probability>
87.70

> <Delta G>
1.943

> <G>
-6.019

> <E>
-30.820

> <-TS>
24.801

> <U+W>
-51.388

> <U>
7.567

> <W>
-58.954

> <W(PB)>
-61.392

> <W(SA)>
2.438

> <Valence>
8.483

> <Coulomb>
-1.912

> <VdW>
0.996

> <VdW6>
-9.207

> <VdW12>
10.202

> <Bond>
0.188

> <Angle>
2.901

> <Pdih>
5.393

> <Idih>
0.001

> <Tether>
0.000

$$$$
VeraChem MOL file


 25 24  0  0  0  0  0  0  0  0999 V2000     
   19.9152   19.2250   27.5281 C   0  0  0  0  0  0  0  0  0  0  0  0
   20.8895   19.4409   28.2216 O   0  5  0  0  0  0  0  0  0  0  0  0
   18.7786   19.4974   27.8604 O   0  0  0  0  0  0  0  0  0  0  0  0
   20.1332   18.5972   26.1561 C   0  0  0  0  0  0  0  0  0  0  0  0
   19.2602   17.9757   25.9234 H   0  0  0  0  0  0  0  0  0  0  0  0
   20.9996   17.9282   26.2213 H   0  0  0  0  0  0  0  0  0  0  0  0
   20.3529   19.6493   25.0412 C   0  0  0  0  0  0  0  0  0  0  0  0
   19.4827   20.3189   24.9974 H   0  0  0  0  0  0  0  0  0  0  0  0
   21.2220   20.2716   25.2959 H   0  0  0  0  0  0  0  0  0  0  0  0
   20.5705   18.9889   23.6625 C   0  0  0  0  0  0  0  0  0  0  0  0
   19.7000   18.3648   23.4218 H   0  0  0  0  0  0  0  0  0  0  0  0
   21.4425   18.3223   23.7075 H   0  0  0  0  0  0  0  0  0  0  0  0
   20.7828   20.0430   22.5517 C   0  0  0  0  0  0  0  0  0  0  0  0
   19.8933   20.6813   22.4709 H   0  0  0  0  0  0  0  0  0  0  0  0
   21.6079   20.7070   22.8432 H   0  0  0  0  0  0  0  0  0  0  0  0
   21.1190   19.4267   21.1703 C   0  0  0  0  0  0  0  0  0  0  0  0
   22.0641   18.8724   21.2489 H   0  0  0  0  0  0  0  0  0  0  0  0
   21.3045   20.2416   20.4573 H   0  0  0  0  0  0  0  0  0  0  0  0
   20.0373   18.4863   20.5834 C   0  0  0  0  0  0  0  0  0  0  0  0
   20.3938   18.1039   19.6171 H   0  0  0  0  0  0  0  0  0  0  0  0
   19.9092   17.6068   21.2282 H   0  0  0  0  0  0  0  0  0  0  0  0
   18.6740   19.1791   20.3706 C   0  0  0  0  0  0  0  0  0  0  0  0
   18.7820   20.0759   19.7467 H   0  0  0  0  0  0  0  0  0  0  0  0
   17.9720   18.5003   19.8693 H   0  0  0  0  0  0  0  0  0  0  0  0
   18.2243   19.4759   21.3265 H   0  0  0  0  0  0  0  0  0  0  0  0
  1  2  1  0  0  0  0
  1  3  2  0  0  0  0
  1  4  1  0  0  0  0
  4  5  1  0  0  0  0
  4  6  1  0  0  0  0
  4  7  1  0  0  0  0
  7  8  1  0  0  0  0
  7  9  1  0  0  0  0
  7 10  1  0  0  0  0
 10 11  1  0  0  0  0
 10 12  1  0  0  0  0
 10 13  1  0  0  0  0
 13 14  1  0  0  0  0
 13 15  1  0  0  0  0
 13 16  1  0  0  0  0
 16 17  1  0  0  0  0
 16 18  1  0  0  0  0
 16 19  1  0  0  0  0
 19 20  1  0  0  0  0
 19 21  1  0  0  0  0
 19 22  1  0  0  0  0
 22 23  1  0  0  0  0
 22 24  1  0  0  0  0
 22 25  1  0  0  0  0
M  END
> <VM2 Rank>
29

> <Conf_Id>
1080

> <Probability>
0.87

> <Sum Probability>
88.57

> <Delta G>
1.964

> <G>
-5.998

> <E>
-30.800

> <-TS>
24.802

> <U+W>
-51.367

> <U>
7.567

> <W>
-58.933

> <W(PB)>
-61.396

> <W(SA)>
2.463

> <Valence>
8.483

> <Coulomb>
-1.912

> <VdW>
0.996

> <VdW6>
-9.207

> <VdW12>
10.203

> <Bond>
0.188

> <Angle>
2.901

> <Pdih>
5.392

> <Idih>
0.001

> <Tether>
0.000

$$$$
VeraChem MOL file


 25 24  0  0  0  0  0  0  0  0999 V2000     
   20.2453   18.9857   27.2707 C   0  0  0  0  0  0  0  0  0  0  0  0
   21.3799   18.7091   27.6075 O   0  5  0  0  0  0  0  0  0  0  0  0
   19.2990   18.2373   27.4162 O   0  0  0  0  0  0  0  0  0  0  0  0
   19.9947   20.3558   26.6471 C   0  0  0  0  0  0  0  0  0  0  0  0
   20.5204   21.0966   27.2610 H   0  0  0  0  0  0  0  0  0  0  0  0
   18.9245   20.5838   26.7212 H   0  0  0  0  0  0  0  0  0  0  0  0
   20.4670   20.4741   25.1747 C   0  0  0  0  0  0  0  0  0  0  0  0
   20.3763   21.5208   24.8542 H   0  0  0  0  0  0  0  0  0  0  0  0
   21.5333   20.2157   25.1126 H   0  0  0  0  0  0  0  0  0  0  0  0
   19.6541   19.5755   24.2157 C   0  0  0  0  0  0  0  0  0  0  0  0
   18.5877   19.8285   24.2919 H   0  0  0  0  0  0  0  0  0  0  0  0
   19.7544   18.5242   24.5190 H   0  0  0  0  0  0  0  0  0  0  0  0
   20.1196   19.7330   22.7520 C   0  0  0  0  0  0  0  0  0  0  0  0
   20.0146   20.7823   22.4441 H   0  0  0  0  0  0  0  0  0  0  0  0
   21.1867   19.4839   22.6857 H   0  0  0  0  0  0  0  0  0  0  0  0
   19.3080   18.8303   21.7942 C   0  0  0  0  0  0  0  0  0  0  0  0
   18.2380   19.0423   21.9243 H   0  0  0  0  0  0  0  0  0  0  0  0
   19.4517   17.7762   22.0686 H   0  0  0  0  0  0  0  0  0  0  0  0
   19.6709   19.0310   20.3044 C   0  0  0  0  0  0  0  0  0  0  0  0
   18.9735   18.4451   19.6898 H   0  0  0  0  0  0  0  0  0  0  0  0
   19.5220   20.0831   20.0247 H   0  0  0  0  0  0  0  0  0  0  0  0
   21.1146   18.6022   19.9635 C   0  0  0  0  0  0  0  0  0  0  0  0
   21.2962   17.5614   20.2620 H   0  0  0  0  0  0  0  0  0  0  0  0
   21.2932   18.6800   18.8833 H   0  0  0  0  0  0  0  0  0  0  0  0
   21.8516   19.2390   20.4684 H   0  0  0  0  0  0  0  0  0  0  0  0
  1  2  1  0  0  0  0
  1  3  2  0  0  0  0
  1  4  1  0  0  0  0
  4  5  1  0  0  0  0
  4  6  1  0  0  0  0
  4  7  1  0  0  0  0
  7  8  1  0  0  0  0
  7  9  1  0  0  0  0
  7 10  1  0  0  0  0
 10 11  1  0  0  0  0
 10 12  1  0  0  0  0
 10 13  1  0  0  0  0
 13 14  1  0  0  0  0
 13 15  1  0  0  0  0
 13 16  1  0  0  0  0
 16 17  1  0  0  0  0
 16 18  1  0  0  0  0
 16 19  1  0  0  0  0
 19 20  1  0  0  0  0
 19 21  1  0  0  0  0
 19 22  1  0  0  0  0
 22 23  1  0  0  0  0
 22 24  1  0  0  0  0
 22 25  1  0  0  0  0
M  END
> <VM2 Rank>
30

> <Conf_Id>
468

> <Probability>
0.55

> <Sum Probability>
89.12

> <Delta G>
2.244

> <G>
-5.718

> <E>
-30.540

> <-TS>
24.822

> <U+W>
-51.107

> <U>
8.783

> <W>
-59.890

> <W(PB)>
-62.358

> <W(SA)>
2.468

> <Valence>
8.287

> <Coulomb>
-0.381

> <VdW>
0.877

> <VdW6>
-9.131

> <VdW12>
10.007

> <Bond>
0.167

> <Angle>
2.661

> <Pdih>
5.459

> <Idih>
0.000

> <Tether>
0.000

$$$$
VeraChem MOL file


 25 24  0  0  0  0  0  0  0  0999 V2000     
   19.9087   19.5964   27.1473 C   0  0  0  0  0  0  0  0  0  0  0  0
   20.8838   20.1972   27.5540 O   0  5  0  0  0  0  0  0  0  0  0  0
   18.7780   20.0397   27.1927 O   0  0  0  0  0  0  0  0  0  0  0  0
   20.1104   18.2001   26.5654 C   0  0  0  0  0  0  0  0  0  0  0  0
   19.3343   17.5523   26.9897 H   0  0  0  0  0  0  0  0  0  0  0  0
   21.0744   17.8112   26.9150 H   0  0  0  0  0  0  0  0  0  0  0  0
   20.0399   18.1475   25.0172 C   0  0  0  0  0  0  0  0  0  0  0  0
   20.0636   17.0980   24.6943 H   0  0  0  0  0  0  0  0  0  0  0  0
   19.0755   18.5588   24.6912 H   0  0  0  0  0  0  0  0  0  0  0  0
   21.2036   18.9151   24.3453 C   0  0  0  0  0  0  0  0  0  0  0  0
   22.1556   18.5478   24.7524 H   0  0  0  0  0  0  0  0  0  0  0  0
   21.1470   19.9811   24.6056 H   0  0  0  0  0  0  0  0  0  0  0  0
   21.2355   18.7616   22.8061 C   0  0  0  0  0  0  0  0  0  0  0  0
   22.1540   19.2317   22.4289 H   0  0  0  0  0  0  0  0  0  0  0  0
   21.3011   17.6969   22.5436 H   0  0  0  0  0  0  0  0  0  0  0  0
   20.0177   19.3993   22.0982 C   0  0  0  0  0  0  0  0  0  0  0  0
   19.9229   20.4497   22.4058 H   0  0  0  0  0  0  0  0  0  0  0  0
   19.0956   18.8901   22.4071 H   0  0  0  0  0  0  0  0  0  0  0  0
   20.1461   19.3221   20.5622 C   0  0  0  0  0  0  0  0  0  0  0  0
   21.0621   19.8365   20.2401 H   0  0  0  0  0  0  0  0  0  0  0  0
   20.2429   18.2726   20.2512 H   0  0  0  0  0  0  0  0  0  0  0  0
   18.9292   19.9551   19.8577 C   0  0  0  0  0  0  0  0  0  0  0  0
   18.8265   21.0144   20.1273 H   0  0  0  0  0  0  0  0  0  0  0  0
   19.0373   19.8919   18.7671 H   0  0  0  0  0  0  0  0  0  0  0  0
   18.0013   19.4389   20.1368 H   0  0  0  0  0  0  0  0  0  0  0  0
  1  2  1  0  0  0  0
  1  3  2  0  0  0  0
  1  4  1  0  0  0  0
  4  5  1  0  0  0  0
  4  6  1  0  0  0  0
  4  7  1  0  0  0  0
  7  8  1  0  0  0  0
  7  9  1  0  0  0  0
  7 10  1  0  0  0  0
 10 11  1  0  0  0  0
 10 12  1  0  0  0  0
 10 13  1  0  0  0  0
 13 14  1  0  0  0  0
 13 15  1  0  0  0  0
 13 16  1  0  0  0  0
 16 17  1  0  0  0  0
 16 18  1  0  0  0  0
 16 19  1  0  0  0  0
 19 20  1  0  0  0  0
 19 21  1  0  0  0  0
 19 22  1  0  0  0  0
 22 23  1  0  0  0  0
 22 24  1  0  0  0  0
 22 25  1  0  0  0  0
M  END
> <VM2 Rank>
31

> <Conf_Id>
1036

> <Probability>
0.54

> <Sum Probability>
89.66

> <Delta G>
2.245

> <G>
-5.717

> <E>
-30.531

> <-TS>
24.815

> <U+W>
-51.099

> <U>
8.902

> <W>
-60.001

> <W(PB)>
-62.478

> <W(SA)>
2.477

> <Valence>
8.306

> <Coulomb>
-0.225

> <VdW>
0.821

> <VdW6>
-9.236

> <VdW12>
10.057

> <Bond>
0.173

> <Angle>
2.663

> <Pdih>
5.469

> <Idih>
0.001

> <Tether>
0.000

$$$$
VeraChem MOL file


 25 24  0  0  0  0  0  0  0  0999 V2000     
   20.1156   19.2903   27.4031 C   0  0  0  0  0  0  0  0  0  0  0  0
   21.2138   19.6559   27.7733 O   0  5  0  0  0  0  0  0  0  0  0  0
   19.0745   19.7507   27.8288 O   0  0  0  0  0  0  0  0  0  0  0  0
   20.0368   18.1797   26.3592 C   0  0  0  0  0  0  0  0  0  0  0  0
   19.2863   17.4591   26.7046 H   0  0  0  0  0  0  0  0  0  0  0  0
   20.9976   17.6512   26.3364 H   0  0  0  0  0  0  0  0  0  0  0  0
   19.6637   18.6740   24.9372 C   0  0  0  0  0  0  0  0  0  0  0  0
   19.4811   17.7981   24.3019 H   0  0  0  0  0  0  0  0  0  0  0  0
   18.7203   19.2354   24.9830 H   0  0  0  0  0  0  0  0  0  0  0  0
   20.7686   19.5550   24.3058 C   0  0  0  0  0  0  0  0  0  0  0  0
   21.6996   18.9781   24.2213 H   0  0  0  0  0  0  0  0  0  0  0  0
   20.9865   20.3965   24.9777 H   0  0  0  0  0  0  0  0  0  0  0  0
   20.3850   20.1265   22.9200 C   0  0  0  0  0  0  0  0  0  0  0  0
   19.4543   20.7039   23.0053 H   0  0  0  0  0  0  0  0  0  0  0  0
   21.1636   20.8368   22.6101 H   0  0  0  0  0  0  0  0  0  0  0  0
   20.2295   19.0443   21.8264 C   0  0  0  0  0  0  0  0  0  0  0  0
   19.4018   18.3698   22.0809 H   0  0  0  0  0  0  0  0  0  0  0  0
   21.1410   18.4327   21.7828 H   0  0  0  0  0  0  0  0  0  0  0  0
   19.9621   19.6688   20.4406 C   0  0  0  0  0  0  0  0  0  0  0  0
   19.0519   20.2831   20.4811 H   0  0  0  0  0  0  0  0  0  0  0  0
   20.7888   20.3403   20.1705 H   0  0  0  0  0  0  0  0  0  0  0  0
   19.8035   18.5887   19.3516 C   0  0  0  0  0  0  0  0  0  0  0  0
   18.9621   17.9213   19.5798 H   0  0  0  0  0  0  0  0  0  0  0  0
   19.6144   19.0501   18.3736 H   0  0  0  0  0  0  0  0  0  0  0  0
   20.7123   17.9784   19.2685 H   0  0  0  0  0  0  0  0  0  0  0  0
  1  2  1  0  0  0  0
  1  3  2  0  0  0  0
  1  4  1  0  0  0  0
  4  5  1  0  0  0  0
  4  6  1  0  0  0  0
  4  7  1  0  0  0  0
  7  8  1  0  0  0  0
  7  9  1  0  0  0  0
  7 10  1  0  0  0  0
 10 11  1  0  0  0  0
 10 12  1  0  0  0  0
 10 13  1  0  0  0  0
 13 14  1  0  0  0  0
 13 15  1  0  0  0  0
 13 16  1  0  0  0  0
 16 17  1  0  0  0  0
 16 18  1  0  0  0  0
 16 19  1  0  0  0  0
 19 20  1  0  0  0  0
 19 21  1  0  0  0  0
 19 22  1  0  0  0  0
 22 23  1  0  0  0  0
 22 24  1  0  0  0  0
 22 25  1  0  0  0  0
M  END
> <VM2 Rank>
32

> <Conf_Id>
986

> <Probability>
0.53

> <Sum Probability>
90.19

> <Delta G>
2.259

> <G>
-5.704

> <E>
-30.525

> <-TS>
24.821

> <U+W>
-51.093

> <U>
8.377

> <W>
-59.470

> <W(PB)>
-61.944

> <W(SA)>
2.474

> <Valence>
8.357

> <Coulomb>
-0.892

> <VdW>
0.912

> <VdW6>
-9.161

> <VdW12>
10.073

> <Bond>
0.177

> <Angle>
2.702

> <Pdih>
5.478

> <Idih>
0.000

> <Tether>
0.000

$$$$
VeraChem MOL file


 25 24  0  0  0  0  0  0  0  0999 V2000     
   20.1078   18.9771   27.2723 C   0  0  0  0  0  0  0  0  0  0  0  0
   21.1436   18.3534   27.3949 O   0  5  0  0  0  0  0  0  0  0  0  0
   19.0249   18.5609   27.6347 O   0  0  0  0  0  0  0  0  0  0  0  0
   20.1703   20.3669   26.6450 C   0  0  0  0  0  0  0  0  0  0  0  0
   21.2049   20.7273   26.6949 H   0  0  0  0  0  0  0  0  0  0  0  0
   19.5702   21.0368   27.2720 H   0  0  0  0  0  0  0  0  0  0  0  0
   19.6532   20.4229   25.1841 C   0  0  0  0  0  0  0  0  0  0  0  0
   18.6265   20.0327   25.1462 H   0  0  0  0  0  0  0  0  0  0  0  0
   19.6046   21.4722   24.8631 H   0  0  0  0  0  0  0  0  0  0  0  0
   20.5501   19.6320   24.2054 C   0  0  0  0  0  0  0  0  0  0  0  0
   20.5894   18.5768   24.5094 H   0  0  0  0  0  0  0  0  0  0  0  0
   21.5778   20.0167   24.2574 H   0  0  0  0  0  0  0  0  0  0  0  0
   20.0349   19.7277   22.7529 C   0  0  0  0  0  0  0  0  0  0  0  0
   19.0062   19.3468   22.7109 H   0  0  0  0  0  0  0  0  0  0  0  0
   20.0005   20.7814   22.4442 H   0  0  0  0  0  0  0  0  0  0  0  0
   20.9309   18.9323   21.7755 C   0  0  0  0  0  0  0  0  0  0  0  0
   20.9268   17.8690   22.0516 H   0  0  0  0  0  0  0  0  0  0  0  0
   21.9687   19.2770   21.8813 H   0  0  0  0  0  0  0  0  0  0  0  0
   20.5117   19.0839   20.2947 C   0  0  0  0  0  0  0  0  0  0  0  0
   20.5210   20.1460   20.0133 H   0  0  0  0  0  0  0  0  0  0  0  0
   21.2626   18.5892   19.6634 H   0  0  0  0  0  0  0  0  0  0  0  0
   19.1256   18.4770   19.9865 C   0  0  0  0  0  0  0  0  0  0  0  0
   18.9139   18.5304   18.9107 H   0  0  0  0  0  0  0  0  0  0  0  0
   19.0828   17.4222   20.2874 H   0  0  0  0  0  0  0  0  0  0  0  0
   18.3264   19.0172   20.5091 H   0  0  0  0  0  0  0  0  0  0  0  0
  1  2  1  0  0  0  0
  1  3  2  0  0  0  0
  1  4  1  0  0  0  0
  4  5  1  0  0  0  0
  4  6  1  0  0  0  0
  4  7  1  0  0  0  0
  7  8  1  0  0  0  0
  7  9  1  0  0  0  0
  7 10  1  0  0  0  0
 10 11  1  0  0  0  0
 10 12  1  0  0  0  0
 10 13  1  0  0  0  0
 13 14  1  0  0  0  0
 13 15  1  0  0  0  0
 13 16  1  0  0  0  0
 16 17  1  0  0  0  0
 16 18  1  0  0  0  0
 16 19  1  0  0  0  0
 19 20  1  0  0  0  0
 19 21  1  0  0  0  0
 19 22  1  0  0  0  0
 22 23  1  0  0  0  0
 22 24  1  0  0  0  0
 22 25  1  0  0  0  0
M  END
> <VM2 Rank>
33

> <Conf_Id>
493

> <Probability>
0.51

> <Sum Probability>
90.70

> <Delta G>
2.283

> <G>
-5.679

> <E>
-30.501

> <-TS>
24.822

> <U+W>
-51.069

> <U>
8.783

> <W>
-59.850

> <W(PB)>
-62.310

> <W(SA)>
2.460

> <Valence>
8.287

> <Coulomb>
-0.381

> <VdW>
0.877

> <VdW6>
-9.131

> <VdW12>
10.007

> <Bond>
0.167

> <Angle>
2.660

> <Pdih>
5.459

> <Idih>
0.000

> <Tether>
0.000

$$$$
VeraChem MOL file


 25 24  0  0  0  0  0  0  0  0999 V2000     
   19.9594   18.9461   27.1548 C   0  0  0  0  0  0  0  0  0  0  0  0
   21.0150   18.5131   27.5733 O   0  5  0  0  0  0  0  0  0  0  0  0
   18.9110   18.3340   27.2122 O   0  0  0  0  0  0  0  0  0  0  0  0
   19.9433   20.3431   26.5407 C   0  0  0  0  0  0  0  0  0  0  0  0
   20.8348   20.8846   26.8796 H   0  0  0  0  0  0  0  0  0  0  0  0
   19.0755   20.8724   26.9514 H   0  0  0  0  0  0  0  0  0  0  0  0
   19.8684   20.3486   24.9918 C   0  0  0  0  0  0  0  0  0  0  0  0
   18.9799   19.7854   24.6770 H   0  0  0  0  0  0  0  0  0  0  0  0
   19.7297   21.3814   24.6449 H   0  0  0  0  0  0  0  0  0  0  0  0
   21.1381   19.7553   24.3357 C   0  0  0  0  0  0  0  0  0  0  0  0
   21.2469   18.6997   24.6204 H   0  0  0  0  0  0  0  0  0  0  0  0
   22.0210   20.2749   24.7325 H   0  0  0  0  0  0  0  0  0  0  0  0
   21.1487   19.8766   22.7933 C   0  0  0  0  0  0  0  0  0  0  0  0
   21.0491   20.9323   22.5063 H   0  0  0  0  0  0  0  0  0  0  0  0
   22.1295   19.5458   22.4253 H   0  0  0  0  0  0  0  0  0  0  0  0
   20.0456   19.0418   22.1023 C   0  0  0  0  0  0  0  0  0  0  0  0
   19.0552   19.4091   22.4010 H   0  0  0  0  0  0  0  0  0  0  0  0
   20.1140   17.9968   22.4343 H   0  0  0  0  0  0  0  0  0  0  0  0
   20.1632   19.1026   20.5647 C   0  0  0  0  0  0  0  0  0  0  0  0
   20.0971   20.1470   20.2296 H   0  0  0  0  0  0  0  0  0  0  0  0
   21.1484   18.7289   20.2530 H   0  0  0  0  0  0  0  0  0  0  0  0
   19.0603   18.2729   19.8772 C   0  0  0  0  0  0  0  0  0  0  0  0
   18.0631   18.6456   20.1460 H   0  0  0  0  0  0  0  0  0  0  0  0
   19.1592   18.3270   18.7852 H   0  0  0  0  0  0  0  0  0  0  0  0
   19.1223   17.2169   20.1713 H   0  0  0  0  0  0  0  0  0  0  0  0
  1  2  1  0  0  0  0
  1  3  2  0  0  0  0
  1  4  1  0  0  0  0
  4  5  1  0  0  0  0
  4  6  1  0  0  0  0
  4  7  1  0  0  0  0
  7  8  1  0  0  0  0
  7  9  1  0  0  0  0
  7 10  1  0  0  0  0
 10 11  1  0  0  0  0
 10 12  1  0  0  0  0
 10 13  1  0  0  0  0
 13 14  1  0  0  0  0
 13 15  1  0  0  0  0
 13 16  1  0  0  0  0
 16 17  1  0  0  0  0
 16 18  1  0  0  0  0
 16 19  1  0  0  0  0
 19 20  1  0  0  0  0
 19 21  1  0  0  0  0
 19 22  1  0  0  0  0
 22 23  1  0  0  0  0
 22 24  1  0  0  0  0
 22 25  1  0  0  0  0
M  END
> <VM2 Rank>
34

> <Conf_Id>
459

> <Probability>
0.50

> <Sum Probability>
91.21

> <Delta G>
2.295

> <G>
-5.668

> <E>
-30.482

> <-TS>
24.815

> <U+W>
-51.050

> <U>
8.903

> <W>
-59.953

> <W(PB)>
-62.431

> <W(SA)>
2.478

> <Valence>
8.305

> <Coulomb>
-0.224

> <VdW>
0.821

> <VdW6>
-9.236

> <VdW12>
10.057

> <Bond>
0.173

> <Angle>
2.663

> <Pdih>
5.469

> <Idih>
0.001

> <Tether>
0.000

$$$$
VeraChem MOL file


 25 24  0  0  0  0  0  0  0  0999 V2000     
   19.8216   19.5707   27.1378 C   0  0  0  0  0  0  0  0  0  0  0  0
   20.6871   20.1252   27.7864 O   0  5  0  0  0  0  0  0  0  0  0  0
   18.7184   20.0427   26.9457 O   0  0  0  0  0  0  0  0  0  0  0  0
   20.1333   18.1976   26.5491 C   0  0  0  0  0  0  0  0  0  0  0  0
   19.1877   17.6990   26.3039 H   0  0  0  0  0  0  0  0  0  0  0  0
   20.6104   17.6035   27.3374 H   0  0  0  0  0  0  0  0  0  0  0  0
   21.0552   18.2405   25.3028 C   0  0  0  0  0  0  0  0  0  0  0  0
   21.9866   18.7652   25.5573 H   0  0  0  0  0  0  0  0  0  0  0  0
   21.3349   17.2137   25.0307 H   0  0  0  0  0  0  0  0  0  0  0  0
   20.3837   18.9233   24.0900 C   0  0  0  0  0  0  0  0  0  0  0  0
   20.1208   19.9587   24.3470 H   0  0  0  0  0  0  0  0  0  0  0  0
   19.4449   18.4031   23.8597 H   0  0  0  0  0  0  0  0  0  0  0  0
   21.3077   18.9202   22.8502 C   0  0  0  0  0  0  0  0  0  0  0  0
   22.2694   19.3766   23.1215 H   0  0  0  0  0  0  0  0  0  0  0  0
   21.5274   17.8853   22.5540 H   0  0  0  0  0  0  0  0  0  0  0  0
   20.7231   19.6912   21.6428 C   0  0  0  0  0  0  0  0  0  0  0  0
   21.4911   19.7444   20.8590 H   0  0  0  0  0  0  0  0  0  0  0  0
   20.5080   20.7275   21.9374 H   0  0  0  0  0  0  0  0  0  0  0  0
   19.4501   19.0421   21.0541 C   0  0  0  0  0  0  0  0  0  0  0  0
   19.6497   17.9897   20.8098 H   0  0  0  0  0  0  0  0  0  0  0  0
   18.6425   19.0511   21.7979 H   0  0  0  0  0  0  0  0  0  0  0  0
   18.9728   19.7805   19.7872 C   0  0  0  0  0  0  0  0  0  0  0  0
   18.0669   19.3100   19.3835 H   0  0  0  0  0  0  0  0  0  0  0  0
   18.7396   20.8301   20.0092 H   0  0  0  0  0  0  0  0  0  0  0  0
   19.7432   19.7582   19.0052 H   0  0  0  0  0  0  0  0  0  0  0  0
  1  2  1  0  0  0  0
  1  3  2  0  0  0  0
  1  4  1  0  0  0  0
  4  5  1  0  0  0  0
  4  6  1  0  0  0  0
  4  7  1  0  0  0  0
  7  8  1  0  0  0  0
  7  9  1  0  0  0  0
  7 10  1  0  0  0  0
 10 11  1  0  0  0  0
 10 12  1  0  0  0  0
 10 13  1  0  0  0  0
 13 14  1  0  0  0  0
 13 15  1  0  0  0  0
 13 16  1  0  0  0  0
 16 17  1  0  0  0  0
 16 18  1  0  0  0  0
 16 19  1  0  0  0  0
 19 20  1  0  0  0  0
 19 21  1  0  0  0  0
 19 22  1  0  0  0  0
 22 23  1  0  0  0  0
 22 24  1  0  0  0  0
 22 25  1  0  0  0  0
M  END
> <VM2 Rank>
35

> <Conf_Id>
286

> <Probability>
0.49

> <Sum Probability>
91.70

> <Delta G>
2.306

> <G>
-5.656

> <E>
-30.465

> <-TS>
24.809

> <U+W>
-51.032

> <U>
8.998

> <W>
-60.030

> <W(PB)>
-62.528

> <W(SA)>
2.498

> <Valence>
8.322

> <Coulomb>
-0.176

> <VdW>
0.852

> <VdW6>
-9.197

> <VdW12>
10.049

> <Bond>
0.171

> <Angle>
2.683

> <Pdih>
5.468

> <Idih>
0.000

> <Tether>
0.000

$$$$
VeraChem MOL file


 25 24  0  0  0  0  0  0  0  0999 V2000     
   20.0663   19.4608   27.3304 C   0  0  0  0  0  0  0  0  0  0  0  0
   20.9652   20.1514   27.7688 O   0  5  0  0  0  0  0  0  0  0  0  0
   18.8881   19.7304   27.4565 O   0  0  0  0  0  0  0  0  0  0  0  0
   20.4397   18.1755   26.5971 C   0  0  0  0  0  0  0  0  0  0  0  0
   19.5628   17.5172   26.5758 H   0  0  0  0  0  0  0  0  0  0  0  0
   21.2042   17.6667   27.1959 H   0  0  0  0  0  0  0  0  0  0  0  0
   20.9741   18.4027   25.1591 C   0  0  0  0  0  0  0  0  0  0  0  0
   21.8341   19.0860   25.1941 H   0  0  0  0  0  0  0  0  0  0  0  0
   21.3448   17.4481   24.7617 H   0  0  0  0  0  0  0  0  0  0  0  0
   19.8960   18.9668   24.2066 C   0  0  0  0  0  0  0  0  0  0  0  0
   19.5323   19.9306   24.5889 H   0  0  0  0  0  0  0  0  0  0  0  0
   19.0333   18.2869   24.1849 H   0  0  0  0  0  0  0  0  0  0  0  0
   20.4405   19.1550   22.7740 C   0  0  0  0  0  0  0  0  0  0  0  0
   21.3009   19.8375   22.7958 H   0  0  0  0  0  0  0  0  0  0  0  0
   20.8050   18.1903   22.3978 H   0  0  0  0  0  0  0  0  0  0  0  0
   19.3598   19.7167   21.8214 C   0  0  0  0  0  0  0  0  0  0  0  0
   18.9554   20.6449   22.2478 H   0  0  0  0  0  0  0  0  0  0  0  0
   18.5196   19.0117   21.7582 H   0  0  0  0  0  0  0  0  0  0  0  0
   19.8894   20.0191   20.4003 C   0  0  0  0  0  0  0  0  0  0  0  0
   19.0968   20.5205   19.8281 H   0  0  0  0  0  0  0  0  0  0  0  0
   20.7258   20.7292   20.4594 H   0  0  0  0  0  0  0  0  0  0  0  0
   20.3339   18.7556   19.6318 C   0  0  0  0  0  0  0  0  0  0  0  0
   21.2029   18.2830   20.1062 H   0  0  0  0  0  0  0  0  0  0  0  0
   19.5223   18.0178   19.5858 H   0  0  0  0  0  0  0  0  0  0  0  0
   20.6162   19.0120   18.6025 H   0  0  0  0  0  0  0  0  0  0  0  0
  1  2  1  0  0  0  0
  1  3  2  0  0  0  0
  1  4  1  0  0  0  0
  4  5  1  0  0  0  0
  4  6  1  0  0  0  0
  4  7  1  0  0  0  0
  7  8  1  0  0  0  0
  7  9  1  0  0  0  0
  7 10  1  0  0  0  0
 10 11  1  0  0  0  0
 10 12  1  0  0  0  0
 10 13  1  0  0  0  0
 13 14  1  0  0  0  0
 13 15  1  0  0  0  0
 13 16  1  0  0  0  0
 16 17  1  0  0  0  0
 16 18  1  0  0  0  0
 16 19  1  0  0  0  0
 19 20  1  0  0  0  0
 19 21  1  0  0  0  0
 19 22  1  0  0  0  0
 22 23  1  0  0  0  0
 22 24  1  0  0  0  0
 22 25  1  0  0  0  0
M  END
> <VM2 Rank>
36

> <Conf_Id>
1063

> <Probability>
0.49

> <Sum Probability>
92.19

> <Delta G>
2.310

> <G>
-5.653

> <E>
-30.473

> <-TS>
24.821

> <U+W>
-51.041

> <U>
8.634

> <W>
-59.675

> <W(PB)>
-62.166

> <W(SA)>
2.491

> <Valence>
8.287

> <Coulomb>
-0.534

> <VdW>
0.881

> <VdW6>
-9.127

> <VdW12>
10.009

> <Bond>
0.168

> <Angle>
2.660

> <Pdih>
5.459

> <Idih>
0.000

> <Tether>
0.000

$$$$
VeraChem MOL file


 25 24  0  0  0  0  0  0  0  0999 V2000     
   20.2016   19.2959   27.4020 C   0  0  0  0  0  0  0  0  0  0  0  0
   21.1854   19.8855   27.8040 O   0  5  0  0  0  0  0  0  0  0  0  0
   19.0747   19.5196   27.7982 O   0  0  0  0  0  0  0  0  0  0  0  0
   20.3965   18.2027   26.3550 C   0  0  0  0  0  0  0  0  0  0  0  0
   19.5104   17.5564   26.3540 H   0  0  0  0  0  0  0  0  0  0  0  0
   21.2403   17.5838   26.6819 H   0  0  0  0  0  0  0  0  0  0  0  0
   20.6705   18.7381   24.9254 C   0  0  0  0  0  0  0  0  0  0  0  0
   21.5357   19.4151   24.9502 H   0  0  0  0  0  0  0  0  0  0  0  0
   20.9484   17.8915   24.2849 H   0  0  0  0  0  0  0  0  0  0  0  0
   19.4482   19.4703   24.3210 C   0  0  0  0  0  0  0  0  0  0  0  0
   19.1402   20.2780   24.9990 H   0  0  0  0  0  0  0  0  0  0  0  0
   18.5966   18.7792   24.2570 H   0  0  0  0  0  0  0  0  0  0  0  0
   19.7239   20.0841   22.9277 C   0  0  0  0  0  0  0  0  0  0  0  0
   18.8541   20.6887   22.6367 H   0  0  0  0  0  0  0  0  0  0  0  0
   20.5750   20.7757   22.9926 H   0  0  0  0  0  0  0  0  0  0  0  0
   19.9913   19.0291   21.8292 C   0  0  0  0  0  0  0  0  0  0  0  0
   19.1647   18.3059   21.8055 H   0  0  0  0  0  0  0  0  0  0  0  0
   20.9040   18.4662   22.0637 H   0  0  0  0  0  0  0  0  0  0  0  0
   20.1451   19.6806   20.4386 C   0  0  0  0  0  0  0  0  0  0  0  0
   19.2333   20.2405   20.1884 H   0  0  0  0  0  0  0  0  0  0  0  0
   20.9699   20.4064   20.4592 H   0  0  0  0  0  0  0  0  0  0  0  0
   20.4158   18.6281   19.3447 C   0  0  0  0  0  0  0  0  0  0  0  0
   21.3407   18.0743   19.5527 H   0  0  0  0  0  0  0  0  0  0  0  0
   19.5909   17.9064   19.2814 H   0  0  0  0  0  0  0  0  0  0  0  0
   20.5219   19.1086   18.3633 H   0  0  0  0  0  0  0  0  0  0  0  0
  1  2  1  0  0  0  0
  1  3  2  0  0  0  0
  1  4  1  0  0  0  0
  4  5  1  0  0  0  0
  4  6  1  0  0  0  0
  4  7  1  0  0  0  0
  7  8  1  0  0  0  0
  7  9  1  0  0  0  0
  7 10  1  0  0  0  0
 10 11  1  0  0  0  0
 10 12  1  0  0  0  0
 10 13  1  0  0  0  0
 13 14  1  0  0  0  0
 13 15  1  0  0  0  0
 13 16  1  0  0  0  0
 16 17  1  0  0  0  0
 16 18  1  0  0  0  0
 16 19  1  0  0  0  0
 19 20  1  0  0  0  0
 19 21  1  0  0  0  0
 19 22  1  0  0  0  0
 22 23  1  0  0  0  0
 22 24  1  0  0  0  0
 22 25  1  0  0  0  0
M  END
> <VM2 Rank>
37

> <Conf_Id>
780

> <Probability>
0.48

> <Sum Probability>
92.67

> <Delta G>
2.316

> <G>
-5.646

> <E>
-30.467

> <-TS>
24.821

> <U+W>
-51.035

> <U>
8.377

> <W>
-59.412

> <W(PB)>
-61.874

> <W(SA)>
2.463

> <Valence>
8.357

> <Coulomb>
-0.892

> <VdW>
0.912

> <VdW6>
-9.161

> <VdW12>
10.073

> <Bond>
0.177

> <Angle>
2.702

> <Pdih>
5.478

> <Idih>
0.000

> <Tether>
0.000

$$$$
VeraChem MOL file


 25 24  0  0  0  0  0  0  0  0999 V2000     
   19.8670   19.7468   27.0047 C   0  0  0  0  0  0  0  0  0  0  0  0
   20.7272   20.4787   27.4536 O   0  5  0  0  0  0  0  0  0  0  0  0
   18.7181   20.0955   26.8162 O   0  0  0  0  0  0  0  0  0  0  0  0
   20.2482   18.3055   26.6786 C   0  0  0  0  0  0  0  0  0  0  0  0
   19.3320   17.7055   26.6207 H   0  0  0  0  0  0  0  0  0  0  0  0
   20.8273   17.9199   27.5259 H   0  0  0  0  0  0  0  0  0  0  0  0
   21.0729   18.1511   25.3743 C   0  0  0  0  0  0  0  0  0  0  0  0
   21.9719   18.7802   25.4354 H   0  0  0  0  0  0  0  0  0  0  0  0
   21.4191   17.1119   25.2929 H   0  0  0  0  0  0  0  0  0  0  0  0
   20.2620   18.5192   24.1113 C   0  0  0  0  0  0  0  0  0  0  0  0
   19.9246   19.5610   24.1889 H   0  0  0  0  0  0  0  0  0  0  0  0
   19.3603   17.8940   24.0593 H   0  0  0  0  0  0  0  0  0  0  0  0
   21.0965   18.3322   22.8231 C   0  0  0  0  0  0  0  0  0  0  0  0
   21.9707   18.9971   22.8486 H   0  0  0  0  0  0  0  0  0  0  0  0
   21.4874   17.3059   22.7967 H   0  0  0  0  0  0  0  0  0  0  0  0
   20.2927   18.5833   21.5250 C   0  0  0  0  0  0  0  0  0  0  0  0
   19.4208   17.9155   21.4972 H   0  0  0  0  0  0  0  0  0  0  0  0
   20.9219   18.3082   20.6676 H   0  0  0  0  0  0  0  0  0  0  0  0
   19.8316   20.0490   21.3587 C   0  0  0  0  0  0  0  0  0  0  0  0
   19.1366   20.3207   22.1642 H   0  0  0  0  0  0  0  0  0  0  0  0
   20.6967   20.7213   21.4412 H   0  0  0  0  0  0  0  0  0  0  0  0
   19.1367   20.2726   20.0004 C   0  0  0  0  0  0  0  0  0  0  0  0
   18.2509   19.6315   19.9025 H   0  0  0  0  0  0  0  0  0  0  0  0
   18.8124   21.3165   19.8991 H   0  0  0  0  0  0  0  0  0  0  0  0
   19.8170   20.0471   19.1687 H   0  0  0  0  0  0  0  0  0  0  0  0
  1  2  1  0  0  0  0
  1  3  2  0  0  0  0
  1  4  1  0  0  0  0
  4  5  1  0  0  0  0
  4  6  1  0  0  0  0
  4  7  1  0  0  0  0
  7  8  1  0  0  0  0
  7  9  1  0  0  0  0
  7 10  1  0  0  0  0
 10 11  1  0  0  0  0
 10 12  1  0  0  0  0
 10 13  1  0  0  0  0
 13 14  1  0  0  0  0
 13 15  1  0  0  0  0
 13 16  1  0  0  0  0
 16 17  1  0  0  0  0
 16 18  1  0  0  0  0
 16 19  1  0  0  0  0
 19 20  1  0  0  0  0
 19 21  1  0  0  0  0
 19 22  1  0  0  0  0
 22 23  1  0  0  0  0
 22 24  1  0  0  0  0
 22 25  1  0  0  0  0
M  END
> <VM2 Rank>
38

> <Conf_Id>
695

> <Probability>
0.48

> <Sum Probability>
93.15

> <Delta G>
2.324

> <G>
-5.639

> <E>
-30.458

> <-TS>
24.819

> <U+W>
-51.026

> <U>
9.231

> <W>
-60.257

> <W(PB)>
-62.739

> <W(SA)>
2.483

> <Valence>
8.319

> <Coulomb>
0.075

> <VdW>
0.838

> <VdW6>
-9.234

> <VdW12>
10.072

> <Bond>
0.172

> <Angle>
2.679

> <Pdih>
5.467

> <Idih>
0.000

> <Tether>
0.000

$$$$
VeraChem MOL file


 25 24  0  0  0  0  0  0  0  0999 V2000     
   20.3804   19.7798   26.9988 C   0  0  0  0  0  0  0  0  0  0  0  0
   21.4709   20.2717   26.7848 O   0  5  0  0  0  0  0  0  0  0  0  0
   19.4442   20.3968   27.4677 O   0  0  0  0  0  0  0  0  0  0  0  0
   20.1788   18.3011   26.6795 C   0  0  0  0  0  0  0  0  0  0  0  0
   19.6733   17.8461   27.5394 H   0  0  0  0  0  0  0  0  0  0  0  0
   21.1625   17.8228   26.5997 H   0  0  0  0  0  0  0  0  0  0  0  0
   19.3508   18.0407   25.3943 C   0  0  0  0  0  0  0  0  0  0  0  0
   19.1384   16.9656   25.3194 H   0  0  0  0  0  0  0  0  0  0  0  0
   18.3805   18.5498   25.4769 H   0  0  0  0  0  0  0  0  0  0  0  0
   20.0788   18.5075   24.1135 C   0  0  0  0  0  0  0  0  0  0  0  0
   21.0516   18.0025   24.0399 H   0  0  0  0  0  0  0  0  0  0  0  0
   20.2821   19.5839   24.1848 H   0  0  0  0  0  0  0  0  0  0  0  0
   19.2457   18.2134   22.8446 C   0  0  0  0  0  0  0  0  0  0  0  0
   18.9887   17.1455   22.8256 H   0  0  0  0  0  0  0  0  0  0  0  0
   18.2945   18.7611   22.8911 H   0  0  0  0  0  0  0  0  0  0  0  0
   19.9808   18.5632   21.5287 C   0  0  0  0  0  0  0  0  0  0  0  0
   19.3725   18.2086   20.6855 H   0  0  0  0  0  0  0  0  0  0  0  0
   20.9301   18.0124   21.4800 H   0  0  0  0  0  0  0  0  0  0  0  0
   20.2467   20.0756   21.3539 C   0  0  0  0  0  0  0  0  0  0  0  0
   19.3048   20.6319   21.4570 H   0  0  0  0  0  0  0  0  0  0  0  0
   20.9194   20.4353   22.1436 H   0  0  0  0  0  0  0  0  0  0  0  0
   20.8760   20.3842   19.9803 C   0  0  0  0  0  0  0  0  0  0  0  0
   21.8341   19.8616   19.8614 H   0  0  0  0  0  0  0  0  0  0  0  0
   20.2114   20.0721   19.1641 H   0  0  0  0  0  0  0  0  0  0  0  0
   21.0615   21.4608   19.8730 H   0  0  0  0  0  0  0  0  0  0  0  0
  1  2  1  0  0  0  0
  1  3  2  0  0  0  0
  1  4  1  0  0  0  0
  4  5  1  0  0  0  0
  4  6  1  0  0  0  0
  4  7  1  0  0  0  0
  7  8  1  0  0  0  0
  7  9  1  0  0  0  0
  7 10  1  0  0  0  0
 10 11  1  0  0  0  0
 10 12  1  0  0  0  0
 10 13  1  0  0  0  0
 13 14  1  0  0  0  0
 13 15  1  0  0  0  0
 13 16  1  0  0  0  0
 16 17  1  0  0  0  0
 16 18  1  0  0  0  0
 16 19  1  0  0  0  0
 19 20  1  0  0  0  0
 19 21  1  0  0  0  0
 19 22  1  0  0  0  0
 22 23  1  0  0  0  0
 22 24  1  0  0  0  0
 22 25  1  0  0  0  0
M  END
> <VM2 Rank>
39

> <Conf_Id>
997

> <Probability>
0.48

> <Sum Probability>
93.62

> <Delta G>
2.324

> <G>
-5.638

> <E>
-30.458

> <-TS>
24.820

> <U+W>
-51.026

> <U>
9.231

> <W>
-60.257

> <W(PB)>
-62.751

> <W(SA)>
2.494

> <Valence>
8.318

> <Coulomb>
0.075

> <VdW>
0.838

> <VdW6>
-9.234

> <VdW12>
10.072

> <Bond>
0.172

> <Angle>
2.679

> <Pdih>
5.467

> <Idih>
0.000

> <Tether>
0.000

$$$$
VeraChem MOL file


 25 24  0  0  0  0  0  0  0  0999 V2000     
   20.4510   19.6109   27.1305 C   0  0  0  0  0  0  0  0  0  0  0  0
   21.4806   20.2192   26.9138 O   0  5  0  0  0  0  0  0  0  0  0  0
   19.5372   20.0517   27.7996 O   0  0  0  0  0  0  0  0  0  0  0  0
   20.3031   18.2085   26.5471 C   0  0  0  0  0  0  0  0  0  0  0  0
   19.9238   17.5597   27.3453 H   0  0  0  0  0  0  0  0  0  0  0  0
   21.2986   17.8339   26.2795 H   0  0  0  0  0  0  0  0  0  0  0  0
   19.3548   18.1319   25.3224 C   0  0  0  0  0  0  0  0  0  0  0  0
   19.2018   17.0774   25.0554 H   0  0  0  0  0  0  0  0  0  0  0  0
   18.3703   18.5342   25.5992 H   0  0  0  0  0  0  0  0  0  0  0  0
   19.9059   18.8928   24.0955 C   0  0  0  0  0  0  0  0  0  0  0  0
   20.8977   18.4959   23.8429 H   0  0  0  0  0  0  0  0  0  0  0  0
   20.0408   19.9536   24.3480 H   0  0  0  0  0  0  0  0  0  0  0  0
   18.9616   18.7703   22.8773 C   0  0  0  0  0  0  0  0  0  0  0  0
   18.8685   17.7155   22.5848 H   0  0  0  0  0  0  0  0  0  0  0  0
   17.9561   19.1011   23.1713 H   0  0  0  0  0  0  0  0  0  0  0  0
   19.4153   19.6077   21.6579 C   0  0  0  0  0  0  0  0  0  0  0  0
   19.5037   20.6633   21.9491 H   0  0  0  0  0  0  0  0  0  0  0  0
   18.6289   19.5617   20.8922 H   0  0  0  0  0  0  0  0  0  0  0  0
   20.7467   19.1249   21.0391 C   0  0  0  0  0  0  0  0  0  0  0  0
   21.5635   19.2375   21.7640 H   0  0  0  0  0  0  0  0  0  0  0  0
   20.6768   18.0553   20.7977 H   0  0  0  0  0  0  0  0  0  0  0  0
   21.0968   19.9161   19.7626 C   0  0  0  0  0  0  0  0  0  0  0  0
   21.1999   20.9872   19.9808 H   0  0  0  0  0  0  0  0  0  0  0  0
   22.0457   19.5640   19.3374 H   0  0  0  0  0  0  0  0  0  0  0  0
   20.3177   19.7951   18.9986 H   0  0  0  0  0  0  0  0  0  0  0  0
  1  2  1  0  0  0  0
  1  3  2  0  0  0  0
  1  4  1  0  0  0  0
  4  5  1  0  0  0  0
  4  6  1  0  0  0  0
  4  7  1  0  0  0  0
  7  8  1  0  0  0  0
  7  9  1  0  0  0  0
  7 10  1  0  0  0  0
 10 11  1  0  0  0  0
 10 12  1  0  0  0  0
 10 13  1  0  0  0  0
 13 14  1  0  0  0  0
 13 15  1  0  0  0  0
 13 16  1  0  0  0  0
 16 17  1  0  0  0  0
 16 18  1  0  0  0  0
 16 19  1  0  0  0  0
 19 20  1  0  0  0  0
 19 21  1  0  0  0  0
 19 22  1  0  0  0  0
 22 23  1  0  0  0  0
 22 24  1  0  0  0  0
 22 25  1  0  0  0  0
M  END
> <VM2 Rank>
40

> <Conf_Id>
1046

> <Probability>
0.44

> <Sum Probability>
94.07

> <Delta G>
2.368

> <G>
-5.594

> <E>
-30.404

> <-TS>
24.810

> <U+W>
-50.971

> <U>
8.998

> <W>
-59.969

> <W(PB)>
-62.451

> <W(SA)>
2.482

> <Valence>
8.322

> <Coulomb>
-0.176

> <VdW>
0.852

> <VdW6>
-9.197

> <VdW12>
10.049

> <Bond>
0.171

> <Angle>
2.683

> <Pdih>
5.468

> <Idih>
0.000

> <Tether>
0.000

$$$$
VeraChem MOL file


 25 24  0  0  0  0  0  0  0  0999 V2000     
   20.3726   19.7382   26.9188 C   0  0  0  0  0  0  0  0  0  0  0  0
   20.9975   20.6617   26.4357 O   0  5  0  0  0  0  0  0  0  0  0  0
   19.5770   19.8675   27.8286 O   0  0  0  0  0  0  0  0  0  0  0  0
   20.6183   18.3343   26.3731 C   0  0  0  0  0  0  0  0  0  0  0  0
   20.8187   17.6820   27.2310 H   0  0  0  0  0  0  0  0  0  0  0  0
   21.5349   18.3464   25.7726 H   0  0  0  0  0  0  0  0  0  0  0  0
   19.4326   17.7553   25.5537 C   0  0  0  0  0  0  0  0  0  0  0  0
   19.6707   16.7257   25.2542 H   0  0  0  0  0  0  0  0  0  0  0  0
   18.5517   17.6895   26.2071 H   0  0  0  0  0  0  0  0  0  0  0  0
   19.0598   18.5786   24.2962 C   0  0  0  0  0  0  0  0  0  0  0  0
   18.7715   19.5969   24.5915 H   0  0  0  0  0  0  0  0  0  0  0  0
   18.1704   18.1268   23.8362 H   0  0  0  0  0  0  0  0  0  0  0  0
   20.1922   18.6449   23.2459 C   0  0  0  0  0  0  0  0  0  0  0  0
   21.0570   19.1766   23.6646 H   0  0  0  0  0  0  0  0  0  0  0  0
   20.5262   17.6278   22.9996 H   0  0  0  0  0  0  0  0  0  0  0  0
   19.7344   19.3636   21.9582 C   0  0  0  0  0  0  0  0  0  0  0  0
   19.3985   20.3798   22.2062 H   0  0  0  0  0  0  0  0  0  0  0  0
   18.8709   18.8365   21.5300 H   0  0  0  0  0  0  0  0  0  0  0  0
   20.8648   19.4360   20.9101 C   0  0  0  0  0  0  0  0  0  0  0  0
   21.7293   19.9655   21.3341 H   0  0  0  0  0  0  0  0  0  0  0  0
   21.2034   18.4211   20.6597 H   0  0  0  0  0  0  0  0  0  0  0  0
   20.4037   20.1540   19.6258 C   0  0  0  0  0  0  0  0  0  0  0  0
   20.0888   21.1831   19.8427 H   0  0  0  0  0  0  0  0  0  0  0  0
   21.2194   20.1967   18.8923 H   0  0  0  0  0  0  0  0  0  0  0  0
   19.5590   19.6272   19.1629 H   0  0  0  0  0  0  0  0  0  0  0  0
  1  2  1  0  0  0  0
  1  3  2  0  0  0  0
  1  4  1  0  0  0  0
  4  5  1  0  0  0  0
  4  6  1  0  0  0  0
  4  7  1  0  0  0  0
  7  8  1  0  0  0  0
  7  9  1  0  0  0  0
  7 10  1  0  0  0  0
 10 11  1  0  0  0  0
 10 12  1  0  0  0  0
 10 13  1  0  0  0  0
 13 14  1  0  0  0  0
 13 15  1  0  0  0  0
 13 16  1  0  0  0  0
 16 17  1  0  0  0  0
 16 18  1  0  0  0  0
 16 19  1  0  0  0  0
 19 20  1  0  0  0  0
 19 21  1  0  0  0  0
 19 22  1  0  0  0  0
 22 23  1  0  0  0  0
 22 24  1  0  0  0  0
 22 25  1  0  0  0  0
M  END
> <VM2 Rank>
41

> <Conf_Id>
814

> <Probability>
0.33

> <Sum Probability>
94.40

> <Delta G>
2.535

> <G>
-5.427

> <E>
-30.291

> <-TS>
24.863

> <U+W>
-50.858

> <U>
9.443

> <W>
-60.301

> <W(PB)>
-62.766

> <W(SA)>
2.465

> <Valence>
8.294

> <Coulomb>
0.527

> <VdW>
0.622

> <VdW6>
-9.564

> <VdW12>
10.186

> <Bond>
0.185

> <Angle>
2.775

> <Pdih>
5.333

> <Idih>
0.001

> <Tether>
0.000

$$$$
VeraChem MOL file


 25 24  0  0  0  0  0  0  0  0999 V2000     
   19.8783   19.7065   26.9244 C   0  0  0  0  0  0  0  0  0  0  0  0
   20.6717   19.9377   27.8157 O   0  5  0  0  0  0  0  0  0  0  0  0
   19.1297   20.5421   26.4571 O   0  0  0  0  0  0  0  0  0  0  0  0
   19.8010   18.2819   26.3826 C   0  0  0  0  0  0  0  0  0  0  0  0
   18.8767   18.1761   25.8034 H   0  0  0  0  0  0  0  0  0  0  0  0
   19.7053   17.6108   27.2440 H   0  0  0  0  0  0  0  0  0  0  0  0
   21.0316   17.8575   25.5352 C   0  0  0  0  0  0  0  0  0  0  0  0
   21.9286   17.9055   26.1681 H   0  0  0  0  0  0  0  0  0  0  0  0
   20.9198   16.8056   25.2398 H   0  0  0  0  0  0  0  0  0  0  0  0
   21.2674   18.7197   24.2707 C   0  0  0  0  0  0  0  0  0  0  0  0
   22.1963   18.3843   23.7896 H   0  0  0  0  0  0  0  0  0  0  0  0
   21.4304   19.7669   24.5608 H   0  0  0  0  0  0  0  0  0  0  0  0
   20.1119   18.6397   23.2469 C   0  0  0  0  0  0  0  0  0  0  0  0
   19.9046   17.5880   23.0069 H   0  0  0  0  0  0  0  0  0  0  0  0
   19.1963   19.0576   23.6862 H   0  0  0  0  0  0  0  0  0  0  0  0
   20.4445   19.4091   21.9501 C   0  0  0  0  0  0  0  0  0  0  0  0
   21.3582   18.9959   21.5014 H   0  0  0  0  0  0  0  0  0  0  0  0
   20.6537   20.4603   22.1918 H   0  0  0  0  0  0  0  0  0  0  0  0
   19.2904   19.3352   20.9284 C   0  0  0  0  0  0  0  0  0  0  0  0
   19.0785   18.2850   20.6842 H   0  0  0  0  0  0  0  0  0  0  0  0
   18.3753   19.7506   21.3730 H   0  0  0  0  0  0  0  0  0  0  0  0
   19.6264   20.1044   19.6349 C   0  0  0  0  0  0  0  0  0  0  0  0
   20.5207   19.6891   19.1520 H   0  0  0  0  0  0  0  0  0  0  0  0
   18.7954   20.0415   18.9204 H   0  0  0  0  0  0  0  0  0  0  0  0
   19.8123   21.1656   19.8461 H   0  0  0  0  0  0  0  0  0  0  0  0
  1  2  1  0  0  0  0
  1  3  2  0  0  0  0
  1  4  1  0  0  0  0
  4  5  1  0  0  0  0
  4  6  1  0  0  0  0
  4  7  1  0  0  0  0
  7  8  1  0  0  0  0
  7  9  1  0  0  0  0
  7 10  1  0  0  0  0
 10 11  1  0  0  0  0
 10 12  1  0  0  0  0
 10 13  1  0  0  0  0
 13 14  1  0  0  0  0
 13 15  1  0  0  0  0
 13 16  1  0  0  0  0
 16 17  1  0  0  0  0
 16 18  1  0  0  0  0
 16 19  1  0  0  0  0
 19 20  1  0  0  0  0
 19 21  1  0  0  0  0
 19 22  1  0  0  0  0
 22 23  1  0  0  0  0
 22 24  1  0  0  0  0
 22 25  1  0  0  0  0
M  END
> <VM2 Rank>
42

> <Conf_Id>
172

> <Probability>
0.33

> <Sum Probability>
94.73

> <Delta G>
2.536

> <G>
-5.426

> <E>
-30.290

> <-TS>
24.863

> <U+W>
-50.857

> <U>
9.443

> <W>
-60.300

> <W(PB)>
-62.764

> <W(SA)>
2.463

> <Valence>
8.294

> <Coulomb>
0.528

> <VdW>
0.622

> <VdW6>
-9.564

> <VdW12>
10.186

> <Bond>
0.185

> <Angle>
2.775

> <Pdih>
5.333

> <Idih>
0.001

> <Tether>
0.000

$$$$
VeraChem MOL file


 25 24  0  0  0  0  0  0  0  0999 V2000     
   20.2371   18.9053   27.2807 C   0  0  0  0  0  0  0  0  0  0  0  0
   21.2955   18.9422   27.8767 O   0  5  0  0  0  0  0  0  0  0  0  0
   19.1540   18.9053   27.8318 O   0  0  0  0  0  0  0  0  0  0  0  0
   20.2697   18.8804   25.7569 C   0  0  0  0  0  0  0  0  0  0  0  0
   19.4085   18.2958   25.4144 H   0  0  0  0  0  0  0  0  0  0  0  0
   21.1730   18.3430   25.4445 H   0  0  0  0  0  0  0  0  0  0  0  0
   20.2494   20.3001   25.1330 C   0  0  0  0  0  0  0  0  0  0  0  0
   19.3196   20.8124   25.4163 H   0  0  0  0  0  0  0  0  0  0  0  0
   21.0713   20.8876   25.5651 H   0  0  0  0  0  0  0  0  0  0  0  0
   20.3976   20.2975   23.5930 C   0  0  0  0  0  0  0  0  0  0  0  0
   21.3372   19.7979   23.3226 H   0  0  0  0  0  0  0  0  0  0  0  0
   20.4847   21.3365   23.2474 H   0  0  0  0  0  0  0  0  0  0  0  0
   19.2105   19.6215   22.8646 C   0  0  0  0  0  0  0  0  0  0  0  0
   19.1725   18.5537   23.1130 H   0  0  0  0  0  0  0  0  0  0  0  0
   18.2713   20.0551   23.2337 H   0  0  0  0  0  0  0  0  0  0  0  0
   19.2561   19.7931   21.3253 C   0  0  0  0  0  0  0  0  0  0  0  0
   19.1886   20.8627   21.0842 H   0  0  0  0  0  0  0  0  0  0  0  0
   18.3600   19.3281   20.8924 H   0  0  0  0  0  0  0  0  0  0  0  0
   20.5098   19.2040   20.6322 C   0  0  0  0  0  0  0  0  0  0  0  0
   20.4372   19.3995   19.5535 H   0  0  0  0  0  0  0  0  0  0  0  0
   21.4125   19.7268   20.9749 H   0  0  0  0  0  0  0  0  0  0  0  0
   20.6734   17.6844   20.8518 C   0  0  0  0  0  0  0  0  0  0  0  0
   20.8659   17.4528   21.9070 H   0  0  0  0  0  0  0  0  0  0  0  0
   19.7716   17.1427   20.5383 H   0  0  0  0  0  0  0  0  0  0  0  0
   21.5196   17.3007   20.2674 H   0  0  0  0  0  0  0  0  0  0  0  0
  1  2  1  0  0  0  0
  1  3  2  0  0  0  0
  1  4  1  0  0  0  0
  4  5  1  0  0  0  0
  4  6  1  0  0  0  0
  4  7  1  0  0  0  0
  7  8  1  0  0  0  0
  7  9  1  0  0  0  0
  7 10  1  0  0  0  0
 10 11  1  0  0  0  0
 10 12  1  0  0  0  0
 10 13  1  0  0  0  0
 13 14  1  0  0  0  0
 13 15  1  0  0  0  0
 13 16  1  0  0  0  0
 16 17  1  0  0  0  0
 16 18  1  0  0  0  0
 16 19  1  0  0  0  0
 19 20  1  0  0  0  0
 19 21  1  0  0  0  0
 19 22  1  0  0  0  0
 22 23  1  0  0  0  0
 22 24  1  0  0  0  0
 22 25  1  0  0  0  0
M  END
> <VM2 Rank>
43

> <Conf_Id>
785

> <Probability>
0.27

> <Sum Probability>
95.00

> <Delta G>
2.663

> <G>
-5.299

> <E>
-30.232

> <-TS>
24.933

> <U+W>
-50.800

> <U>
8.419

> <W>
-59.219

> <W(PB)>
-61.638

> <W(SA)>
2.419

> <Valence>
8.961

> <Coulomb>
-1.581

> <VdW>
1.040

> <VdW6>
-10.001

> <VdW12>
11.041

> <Bond>
0.231

> <Angle>
3.079

> <Pdih>
5.651

> <Idih>
0.001

> <Tether>
0.000

$$$$
VeraChem MOL file


 25 24  0  0  0  0  0  0  0  0999 V2000     
   20.2210   19.7757   27.2556 C   0  0  0  0  0  0  0  0  0  0  0  0
   21.2794   19.8115   27.8517 O   0  5  0  0  0  0  0  0  0  0  0  0
   19.1380   19.7679   27.8068 O   0  0  0  0  0  0  0  0  0  0  0  0
   20.2544   19.7138   25.7328 C   0  0  0  0  0  0  0  0  0  0  0  0
   21.1377   20.2652   25.3891 H   0  0  0  0  0  0  0  0  0  0  0  0
   19.3727   20.2458   25.3580 H   0  0  0  0  0  0  0  0  0  0  0  0
   20.2870   18.2608   25.1918 C   0  0  0  0  0  0  0  0  0  0  0  0
   21.1295   17.7298   25.6562 H   0  0  0  0  0  0  0  0  0  0  0  0
   19.3763   17.7318   25.5052 H   0  0  0  0  0  0  0  0  0  0  0  0
   20.4367   18.1801   23.6541 C   0  0  0  0  0  0  0  0  0  0  0  0
   20.5624   17.1268   23.3688 H   0  0  0  0  0  0  0  0  0  0  0  0
   21.3575   18.6975   23.3543 H   0  0  0  0  0  0  0  0  0  0  0  0
   19.2263   18.7687   22.8891 C   0  0  0  0  0  0  0  0  0  0  0  0
   18.3033   18.3226   23.2835 H   0  0  0  0  0  0  0  0  0  0  0  0
   19.1485   19.8469   23.0757 H   0  0  0  0  0  0  0  0  0  0  0  0
   19.2800   18.5107   21.3621 C   0  0  0  0  0  0  0  0  0  0  0  0
   18.3677   18.9164   20.9041 H   0  0  0  0  0  0  0  0  0  0  0  0
   19.2526   17.4272   21.1831 H   0  0  0  0  0  0  0  0  0  0  0  0
   20.5117   19.1051   20.6352 C   0  0  0  0  0  0  0  0  0  0  0  0
   21.4329   18.6368   21.0065 H   0  0  0  0  0  0  0  0  0  0  0  0
   20.4477   18.8454   19.5696 H   0  0  0  0  0  0  0  0  0  0  0  0
   20.6185   20.6398   20.7669 C   0  0  0  0  0  0  0  0  0  0  0  0
   20.8011   20.9387   21.8068 H   0  0  0  0  0  0  0  0  0  0  0  0
   21.4505   21.0206   20.1605 H   0  0  0  0  0  0  0  0  0  0  0  0
   19.6976   21.1287   20.4237 H   0  0  0  0  0  0  0  0  0  0  0  0
  1  2  1  0  0  0  0
  1  3  2  0  0  0  0
  1  4  1  0  0  0  0
  4  5  1  0  0  0  0
  4  6  1  0  0  0  0
  4  7  1  0  0  0  0
  7  8  1  0  0  0  0
  7  9  1  0  0  0  0
  7 10  1  0  0  0  0
 10 11  1  0  0  0  0
 10 12  1  0  0  0  0
 10 13  1  0  0  0  0
 13 14  1  0  0  0  0
 13 15  1  0  0  0  0
 13 16  1  0  0  0  0
 16 17  1  0  0  0  0
 16 18  1  0  0  0  0
 16 19  1  0  0  0  0
 19 20  1  0  0  0  0
 19 21  1  0  0  0  0
 19 22  1  0  0  0  0
 22 23  1  0  0  0  0
 22 24  1  0  0  0  0
 22 25  1  0  0  0  0
M  END
> <VM2 Rank>
44

> <Conf_Id>
1005

> <Probability>
0.26

> <Sum Probability>
95.27

> <Delta G>
2.682

> <G>
-5.281

> <E>
-30.212

> <-TS>
24.932

> <U+W>
-50.780

> <U>
8.420

> <W>
-59.200

> <W(PB)>
-61.633

> <W(SA)>
2.434

> <Valence>
8.961

> <Coulomb>
-1.581

> <VdW>
1.040

> <VdW6>
-10.001

> <VdW12>
11.041

> <Bond>
0.231

> <Angle>
3.079

> <Pdih>
5.651

> <Idih>
0.001

> <Tether>
0.000

$$$$
VeraChem MOL file


 25 24  0  0  0  0  0  0  0  0999 V2000     
   19.9601   19.8750   26.9492 C   0  0  0  0  0  0  0  0  0  0  0  0
   20.5052   19.6261   28.0065 O   0  5  0  0  0  0  0  0  0  0  0  0
   18.8602   20.3842   26.8626 O   0  0  0  0  0  0  0  0  0  0  0  0
   20.6871   19.5067   25.6609 C   0  0  0  0  0  0  0  0  0  0  0  0
   21.7650   19.5985   25.8391 H   0  0  0  0  0  0  0  0  0  0  0  0
   20.4172   20.2502   24.9022 H   0  0  0  0  0  0  0  0  0  0  0  0
   20.3457   18.0769   25.1672 C   0  0  0  0  0  0  0  0  0  0  0  0
   20.5406   17.3660   25.9820 H   0  0  0  0  0  0  0  0  0  0  0  0
   19.2701   18.0088   24.9565 H   0  0  0  0  0  0  0  0  0  0  0  0
   21.1616   17.6391   23.9247 C   0  0  0  0  0  0  0  0  0  0  0  0
   20.8781   16.6112   23.6606 H   0  0  0  0  0  0  0  0  0  0  0  0
   22.2260   17.6000   24.1937 H   0  0  0  0  0  0  0  0  0  0  0  0
   20.9977   18.5415   22.6758 C   0  0  0  0  0  0  0  0  0  0  0  0
   21.3911   19.5426   22.8912 H   0  0  0  0  0  0  0  0  0  0  0  0
   21.6234   18.1348   21.8699 H   0  0  0  0  0  0  0  0  0  0  0  0
   19.5355   18.6404   22.1765 C   0  0  0  0  0  0  0  0  0  0  0  0
   18.9161   19.1494   22.9268 H   0  0  0  0  0  0  0  0  0  0  0  0
   19.1255   17.6273   22.0669 H   0  0  0  0  0  0  0  0  0  0  0  0
   19.3994   19.3774   20.8239 C   0  0  0  0  0  0  0  0  0  0  0  0
   20.0052   18.8690   20.0611 H   0  0  0  0  0  0  0  0  0  0  0  0
   18.3556   19.3082   20.4881 H   0  0  0  0  0  0  0  0  0  0  0  0
   19.8006   20.8667   20.8987 C   0  0  0  0  0  0  0  0  0  0  0  0
   19.2278   21.3890   21.6761 H   0  0  0  0  0  0  0  0  0  0  0  0
   20.8686   20.9829   21.1214 H   0  0  0  0  0  0  0  0  0  0  0  0
   19.6044   21.3659   19.9411 H   0  0  0  0  0  0  0  0  0  0  0  0
  1  2  1  0  0  0  0
  1  3  2  0  0  0  0
  1  4  1  0  0  0  0
  4  5  1  0  0  0  0
  4  6  1  0  0  0  0
  4  7  1  0  0  0  0
  7  8  1  0  0  0  0
  7  9  1  0  0  0  0
  7 10  1  0  0  0  0
 10 11  1  0  0  0  0
 10 12  1  0  0  0  0
 10 13  1  0  0  0  0
 13 14  1  0  0  0  0
 13 15  1  0  0  0  0
 13 16  1  0  0  0  0
 16 17  1  0  0  0  0
 16 18  1  0  0  0  0
 16 19  1  0  0  0  0
 19 20  1  0  0  0  0
 19 21  1  0  0  0  0
 19 22  1  0  0  0  0
 22 23  1  0  0  0  0
 22 24  1  0  0  0  0
 22 25  1  0  0  0  0
M  END
> <VM2 Rank>
45

> <Conf_Id>
444

> <Probability>
0.26

> <Sum Probability>
95.52

> <Delta G>
2.688

> <G>
-5.275

> <E>
-30.252

> <-TS>
24.977

> <U+W>
-50.819

> <U>
8.957

> <W>
-59.777

> <W(PB)>
-62.189

> <W(SA)>
2.413

> <Valence>
8.948

> <Coulomb>
-0.940

> <VdW>
0.949

> <VdW6>
-10.176

> <VdW12>
11.126

> <Bond>
0.232

> <Angle>
3.080

> <Pdih>
5.635

> <Idih>
0.001

> <Tether>
0.000

$$$$
VeraChem MOL file


 25 24  0  0  0  0  0  0  0  0999 V2000     
   19.6005   19.1775   26.9742 C   0  0  0  0  0  0  0  0  0  0  0  0
   20.1506   18.9383   28.0311 O   0  5  0  0  0  0  0  0  0  0  0  0
   18.5446   19.7720   26.8845 O   0  0  0  0  0  0  0  0  0  0  0  0
   20.2847   18.7260   25.6889 C   0  0  0  0  0  0  0  0  0  0  0  0
   19.5009   18.4724   24.9660 H   0  0  0  0  0  0  0  0  0  0  0  0
   20.8411   17.8059   25.9035 H   0  0  0  0  0  0  0  0  0  0  0  0
   21.2355   19.8031   25.1053 C   0  0  0  0  0  0  0  0  0  0  0  0
   20.6602   20.7057   24.8597 H   0  0  0  0  0  0  0  0  0  0  0  0
   21.9508   20.1019   25.8838 H   0  0  0  0  0  0  0  0  0  0  0  0
   22.0292   19.3221   23.8643 C   0  0  0  0  0  0  0  0  0  0  0  0
   22.6867   18.4939   24.1617 H   0  0  0  0  0  0  0  0  0  0  0  0
   22.6933   20.1325   23.5343 H   0  0  0  0  0  0  0  0  0  0  0  0
   21.1633   18.8627   22.6643 C   0  0  0  0  0  0  0  0  0  0  0  0
   21.8340   18.5430   21.8553 H   0  0  0  0  0  0  0  0  0  0  0  0
   20.5833   17.9756   22.9475 H   0  0  0  0  0  0  0  0  0  0  0  0
   20.2194   19.9669   22.1289 C   0  0  0  0  0  0  0  0  0  0  0  0
   20.8026   20.8803   21.9501 H   0  0  0  0  0  0  0  0  0  0  0  0
   19.4675   20.2190   22.8884 H   0  0  0  0  0  0  0  0  0  0  0  0
   19.5012   19.5745   20.8168 C   0  0  0  0  0  0  0  0  0  0  0  0
   18.9419   20.4449   20.4470 H   0  0  0  0  0  0  0  0  0  0  0  0
   20.2443   19.3322   20.0445 H   0  0  0  0  0  0  0  0  0  0  0  0
   18.5242   18.3910   20.9877 C   0  0  0  0  0  0  0  0  0  0  0  0
   17.7892   18.5994   21.7761 H   0  0  0  0  0  0  0  0  0  0  0  0
   17.9763   18.2074   20.0544 H   0  0  0  0  0  0  0  0  0  0  0  0
   19.0559   17.4674   21.2481 H   0  0  0  0  0  0  0  0  0  0  0  0
  1  2  1  0  0  0  0
  1  3  2  0  0  0  0
  1  4  1  0  0  0  0
  4  5  1  0  0  0  0
  4  6  1  0  0  0  0
  4  7  1  0  0  0  0
  7  8  1  0  0  0  0
  7  9  1  0  0  0  0
  7 10  1  0  0  0  0
 10 11  1  0  0  0  0
 10 12  1  0  0  0  0
 10 13  1  0  0  0  0
 13 14  1  0  0  0  0
 13 15  1  0  0  0  0
 13 16  1  0  0  0  0
 16 17  1  0  0  0  0
 16 18  1  0  0  0  0
 16 19  1  0  0  0  0
 19 20  1  0  0  0  0
 19 21  1  0  0  0  0
 19 22  1  0  0  0  0
 22 23  1  0  0  0  0
 22 24  1  0  0  0  0
 22 25  1  0  0  0  0
M  END
> <VM2 Rank>
46

> <Conf_Id>
715

> <Probability>
0.25

> <Sum Probability>
95.78

> <Delta G>
2.700

> <G>
-5.262

> <E>
-30.239

> <-TS>
24.977

> <U+W>
-50.807

> <U>
8.957

> <W>
-59.764

> <W(PB)>
-62.187

> <W(SA)>
2.423

> <Valence>
8.948

> <Coulomb>
-0.940

> <VdW>
0.950

> <VdW6>
-10.176

> <VdW12>
11.126

> <Bond>
0.232

> <Angle>
3.080

> <Pdih>
5.636

> <Idih>
0.001

> <Tether>
0.000

$$$$
VeraChem MOL file


 25 24  0  0  0  0  0  0  0  0999 V2000     
   20.2975   19.3711   27.4514 C   0  0  0  0  0  0  0  0  0  0  0  0
   21.3956   19.8017   27.7438 O   0  5  0  0  0  0  0  0  0  0  0  0
   19.3429   19.3960   28.2030 O   0  0  0  0  0  0  0  0  0  0  0  0
   20.1005   18.7880   26.0567 C   0  0  0  0  0  0  0  0  0  0  0  0
   19.3454   17.9956   26.1232 H   0  0  0  0  0  0  0  0  0  0  0  0
   21.0429   18.3157   25.7579 H   0  0  0  0  0  0  0  0  0  0  0  0
   19.6673   19.8543   25.0171 C   0  0  0  0  0  0  0  0  0  0  0  0
   18.7764   20.3732   25.3972 H   0  0  0  0  0  0  0  0  0  0  0  0
   20.4530   20.6166   24.9229 H   0  0  0  0  0  0  0  0  0  0  0  0
   19.3393   19.2663   23.6238 C   0  0  0  0  0  0  0  0  0  0  0  0
   18.9105   20.0688   23.0102 H   0  0  0  0  0  0  0  0  0  0  0  0
   18.5607   18.4977   23.7218 H   0  0  0  0  0  0  0  0  0  0  0  0
   20.5729   18.6724   22.9003 C   0  0  0  0  0  0  0  0  0  0  0  0
   21.3507   19.4407   22.8017 H   0  0  0  0  0  0  0  0  0  0  0  0
   21.0086   17.8755   23.5157 H   0  0  0  0  0  0  0  0  0  0  0  0
   20.2444   18.0704   21.5104 C   0  0  0  0  0  0  0  0  0  0  0  0
   19.5302   17.2459   21.6401 H   0  0  0  0  0  0  0  0  0  0  0  0
   21.1573   17.6177   21.1001 H   0  0  0  0  0  0  0  0  0  0  0  0
   19.6729   19.0660   20.4705 C   0  0  0  0  0  0  0  0  0  0  0  0
   19.4792   18.5216   19.5361 H   0  0  0  0  0  0  0  0  0  0  0  0
   18.6991   19.4474   20.8048 H   0  0  0  0  0  0  0  0  0  0  0  0
   20.6198   20.2477   20.1688 C   0  0  0  0  0  0  0  0  0  0  0  0
   21.6086   19.8888   19.8554 H   0  0  0  0  0  0  0  0  0  0  0  0
   20.2132   20.8694   19.3608 H   0  0  0  0  0  0  0  0  0  0  0  0
   20.7487   20.8897   21.0493 H   0  0  0  0  0  0  0  0  0  0  0  0
  1  2  1  0  0  0  0
  1  3  2  0  0  0  0
  1  4  1  0  0  0  0
  4  5  1  0  0  0  0
  4  6  1  0  0  0  0
  4  7  1  0  0  0  0
  7  8  1  0  0  0  0
  7  9  1  0  0  0  0
  7 10  1  0  0  0  0
 10 11  1  0  0  0  0
 10 12  1  0  0  0  0
 10 13  1  0  0  0  0
 13 14  1  0  0  0  0
 13 15  1  0  0  0  0
 13 16  1  0  0  0  0
 16 17  1  0  0  0  0
 16 18  1  0  0  0  0
 16 19  1  0  0  0  0
 19 20  1  0  0  0  0
 19 21  1  0  0  0  0
 19 22  1  0  0  0  0
 22 23  1  0  0  0  0
 22 24  1  0  0  0  0
 22 25  1  0  0  0  0
M  END
> <VM2 Rank>
47

> <Conf_Id>
699

> <Probability>
0.22

> <Sum Probability>
96.00

> <Delta G>
2.780

> <G>
-5.183

> <E>
-30.048

> <-TS>
24.865

> <U+W>
-50.616

> <U>
8.474

> <W>
-59.089

> <W(PB)>
-61.530

> <W(SA)>
2.441

> <Valence>
9.080

> <Coulomb>
-1.772

> <VdW>
1.165

> <VdW6>
-9.830

> <VdW12>
10.996

> <Bond>
0.240

> <Angle>
3.225

> <Pdih>
5.615

> <Idih>
0.001

> <Tether>
0.000

$$$$
VeraChem MOL file


 25 24  0  0  0  0  0  0  0  0999 V2000     
   19.7188   19.3440   27.1604 C   0  0  0  0  0  0  0  0  0  0  0  0
   20.3207   19.0377   28.1707 O   0  5  0  0  0  0  0  0  0  0  0  0
   18.7918   20.1296   27.1413 O   0  0  0  0  0  0  0  0  0  0  0  0
   20.1661   18.7255   25.8409 C   0  0  0  0  0  0  0  0  0  0  0  0
   19.2772   18.6057   25.2111 H   0  0  0  0  0  0  0  0  0  0  0  0
   20.5564   17.7223   26.0492 H   0  0  0  0  0  0  0  0  0  0  0  0
   21.2382   19.5766   25.1125 C   0  0  0  0  0  0  0  0  0  0  0  0
   20.8240   20.5657   24.8765 H   0  0  0  0  0  0  0  0  0  0  0  0
   22.0742   19.7564   25.8025 H   0  0  0  0  0  0  0  0  0  0  0  0
   21.7941   18.9087   23.8294 C   0  0  0  0  0  0  0  0  0  0  0  0
   22.3177   17.9847   24.1102 H   0  0  0  0  0  0  0  0  0  0  0  0
   22.5566   19.5668   23.3909 H   0  0  0  0  0  0  0  0  0  0  0  0
   20.7407   18.5698   22.7441 C   0  0  0  0  0  0  0  0  0  0  0  0
   21.2624   18.0823   21.9108 H   0  0  0  0  0  0  0  0  0  0  0  0
   20.0279   17.8299   23.1305 H   0  0  0  0  0  0  0  0  0  0  0  0
   19.9750   19.8082   22.2169 C   0  0  0  0  0  0  0  0  0  0  0  0
   20.6883   20.5487   21.8306 H   0  0  0  0  0  0  0  0  0  0  0  0
   19.4448   20.2891   23.0489 H   0  0  0  0  0  0  0  0  0  0  0  0
   18.9364   19.4686   21.1223 C   0  0  0  0  0  0  0  0  0  0  0  0
   18.2283   18.7193   21.5024 H   0  0  0  0  0  0  0  0  0  0  0  0
   18.3469   20.3701   20.9058 H   0  0  0  0  0  0  0  0  0  0  0  0
   19.5713   18.9653   19.8076 C   0  0  0  0  0  0  0  0  0  0  0  0
   20.0712   17.9988   19.9469 H   0  0  0  0  0  0  0  0  0  0  0  0
   18.8014   18.8318   19.0366 H   0  0  0  0  0  0  0  0  0  0  0  0
   20.3091   19.6837   19.4273 H   0  0  0  0  0  0  0  0  0  0  0  0
  1  2  1  0  0  0  0
  1  3  2  0  0  0  0
  1  4  1  0  0  0  0
  4  5  1  0  0  0  0
  4  6  1  0  0  0  0
  4  7  1  0  0  0  0
  7  8  1  0  0  0  0
  7  9  1  0  0  0  0
  7 10  1  0  0  0  0
 10 11  1  0  0  0  0
 10 12  1  0  0  0  0
 10 13  1  0  0  0  0
 13 14  1  0  0  0  0
 13 15  1  0  0  0  0
 13 16  1  0  0  0  0
 16 17  1  0  0  0  0
 16 18  1  0  0  0  0
 16 19  1  0  0  0  0
 19 20  1  0  0  0  0
 19 21  1  0  0  0  0
 19 22  1  0  0  0  0
 22 23  1  0  0  0  0
 22 24  1  0  0  0  0
 22 25  1  0  0  0  0
M  END
> <VM2 Rank>
48

> <Conf_Id>
224

> <Probability>
0.22

> <Sum Probability>
96.22

> <Delta G>
2.786

> <G>
-5.176

> <E>
-30.090

> <-TS>
24.914

> <U+W>
-50.658

> <U>
8.774

> <W>
-59.432

> <W(PB)>
-61.890

> <W(SA)>
2.459

> <Valence>
9.062

> <Coulomb>
-1.371

> <VdW>
1.083

> <VdW6>
-9.990

> <VdW12>
11.073

> <Bond>
0.239

> <Angle>
3.221

> <Pdih>
5.601

> <Idih>
0.001

> <Tether>
0.000

$$$$
VeraChem MOL file


 25 24  0  0  0  0  0  0  0  0999 V2000     
   20.5824   19.3993   27.1504 C   0  0  0  0  0  0  0  0  0  0  0  0
   21.4013   20.2963   27.1111 O   0  5  0  0  0  0  0  0  0  0  0  0
   20.0476   19.0206   28.1738 O   0  0  0  0  0  0  0  0  0  0  0  0
   20.1871   18.7268   25.8407 C   0  0  0  0  0  0  0  0  0  0  0  0
   19.9325   17.6824   26.0566 H   0  0  0  0  0  0  0  0  0  0  0  0
   21.0693   18.7201   25.1904 H   0  0  0  0  0  0  0  0  0  0  0  0
   18.9989   19.4335   25.1384 C   0  0  0  0  0  0  0  0  0  0  0  0
   18.1629   19.5065   25.8477 H   0  0  0  0  0  0  0  0  0  0  0  0
   19.2784   20.4669   24.8943 H   0  0  0  0  0  0  0  0  0  0  0  0
   18.5032   18.6983   23.8674 C   0  0  0  0  0  0  0  0  0  0  0  0
   17.6534   19.2535   23.4475 H   0  0  0  0  0  0  0  0  0  0  0  0
   18.1080   17.7157   24.1588 H   0  0  0  0  0  0  0  0  0  0  0  0
   19.5659   18.4945   22.7577 C   0  0  0  0  0  0  0  0  0  0  0  0
   20.3757   17.8518   23.1266 H   0  0  0  0  0  0  0  0  0  0  0  0
   19.0915   17.9437   21.9358 H   0  0  0  0  0  0  0  0  0  0  0  0
   20.1559   19.8195   22.2151 C   0  0  0  0  0  0  0  0  0  0  0  0
   20.6399   20.3648   23.0355 H   0  0  0  0  0  0  0  0  0  0  0  0
   19.3455   20.4630   21.8467 H   0  0  0  0  0  0  0  0  0  0  0  0
   21.2035   19.6131   21.0961 C   0  0  0  0  0  0  0  0  0  0  0  0
   21.6688   20.5819   20.8678 H   0  0  0  0  0  0  0  0  0  0  0  0
   22.0095   18.9601   21.4583 H   0  0  0  0  0  0  0  0  0  0  0  0
   20.6072   19.0321   19.7954 C   0  0  0  0  0  0  0  0  0  0  0  0
   19.7757   19.6508   19.4337 H   0  0  0  0  0  0  0  0  0  0  0  0
   21.3697   18.9966   19.0066 H   0  0  0  0  0  0  0  0  0  0  0  0
   20.2372   18.0102   19.9444 H   0  0  0  0  0  0  0  0  0  0  0  0
  1  2  1  0  0  0  0
  1  3  2  0  0  0  0
  1  4  1  0  0  0  0
  4  5  1  0  0  0  0
  4  6  1  0  0  0  0
  4  7  1  0  0  0  0
  7  8  1  0  0  0  0
  7  9  1  0  0  0  0
  7 10  1  0  0  0  0
 10 11  1  0  0  0  0
 10 12  1  0  0  0  0
 10 13  1  0  0  0  0
 13 14  1  0  0  0  0
 13 15  1  0  0  0  0
 13 16  1  0  0  0  0
 16 17  1  0  0  0  0
 16 18  1  0  0  0  0
 16 19  1  0  0  0  0
 19 20  1  0  0  0  0
 19 21  1  0  0  0  0
 19 22  1  0  0  0  0
 22 23  1  0  0  0  0
 22 24  1  0  0  0  0
 22 25  1  0  0  0  0
M  END
> <VM2 Rank>
49

> <Conf_Id>
1006

> <Probability>
0.21

> <Sum Probability>
96.43

> <Delta G>
2.812

> <G>
-5.150

> <E>
-30.065

> <-TS>
24.915

> <U+W>
-50.633

> <U>
8.774

> <W>
-59.407

> <W(PB)>
-61.854

> <W(SA)>
2.447

> <Valence>
9.062

> <Coulomb>
-1.371

> <VdW>
1.083

> <VdW6>
-9.990

> <VdW12>
11.073

> <Bond>
0.239

> <Angle>
3.221

> <Pdih>
5.602

> <Idih>
0.001

> <Tether>
0.000

$$$$
VeraChem MOL file


 25 24  0  0  0  0  0  0  0  0999 V2000     
   19.7447   19.5472   27.0277 C   0  0  0  0  0  0  0  0  0  0  0  0
   20.4501   19.7386   27.9986 O   0  5  0  0  0  0  0  0  0  0  0  0
   18.6282   20.0110   26.9051 O   0  0  0  0  0  0  0  0  0  0  0  0
   20.2992   18.6943   25.8924 C   0  0  0  0  0  0  0  0  0  0  0  0
   19.4575   18.1665   25.4298 H   0  0  0  0  0  0  0  0  0  0  0  0
   20.9605   17.9357   26.3274 H   0  0  0  0  0  0  0  0  0  0  0  0
   21.0658   19.5293   24.8344 C   0  0  0  0  0  0  0  0  0  0  0  0
   20.3870   20.2671   24.3862 H   0  0  0  0  0  0  0  0  0  0  0  0
   21.8504   20.1074   25.3416 H   0  0  0  0  0  0  0  0  0  0  0  0
   21.7238   18.6689   23.7267 C   0  0  0  0  0  0  0  0  0  0  0  0
   22.4704   18.0081   24.1877 H   0  0  0  0  0  0  0  0  0  0  0  0
   22.2872   19.3276   23.0528 H   0  0  0  0  0  0  0  0  0  0  0  0
   20.7428   17.8016   22.8943 C   0  0  0  0  0  0  0  0  0  0  0  0
   21.3159   17.2625   22.1278 H   0  0  0  0  0  0  0  0  0  0  0  0
   20.3082   17.0261   23.5386 H   0  0  0  0  0  0  0  0  0  0  0  0
   19.5945   18.5797   22.2038 C   0  0  0  0  0  0  0  0  0  0  0  0
   18.9538   19.0519   22.9602 H   0  0  0  0  0  0  0  0  0  0  0  0
   18.9579   17.8587   21.6734 H   0  0  0  0  0  0  0  0  0  0  0  0
   20.0897   19.6450   21.1998 C   0  0  0  0  0  0  0  0  0  0  0  0
   20.6714   20.4147   21.7241 H   0  0  0  0  0  0  0  0  0  0  0  0
   20.7619   19.1786   20.4665 H   0  0  0  0  0  0  0  0  0  0  0  0
   18.9142   20.3184   20.4633 C   0  0  0  0  0  0  0  0  0  0  0  0
   18.2409   20.8167   21.1730 H   0  0  0  0  0  0  0  0  0  0  0  0
   19.2821   21.0740   19.7572 H   0  0  0  0  0  0  0  0  0  0  0  0
   18.3308   19.5808   19.8968 H   0  0  0  0  0  0  0  0  0  0  0  0
  1  2  1  0  0  0  0
  1  3  2  0  0  0  0
  1  4  1  0  0  0  0
  4  5  1  0  0  0  0
  4  6  1  0  0  0  0
  4  7  1  0  0  0  0
  7  8  1  0  0  0  0
  7  9  1  0  0  0  0
  7 10  1  0  0  0  0
 10 11  1  0  0  0  0
 10 12  1  0  0  0  0
 10 13  1  0  0  0  0
 13 14  1  0  0  0  0
 13 15  1  0  0  0  0
 13 16  1  0  0  0  0
 16 17  1  0  0  0  0
 16 18  1  0  0  0  0
 16 19  1  0  0  0  0
 19 20  1  0  0  0  0
 19 21  1  0  0  0  0
 19 22  1  0  0  0  0
 22 23  1  0  0  0  0
 22 24  1  0  0  0  0
 22 25  1  0  0  0  0
M  END
> <VM2 Rank>
50

> <Conf_Id>
255

> <Probability>
0.21

> <Sum Probability>
96.64

> <Delta G>
2.824

> <G>
-5.138

> <E>
-30.315

> <-TS>
25.177

> <U+W>
-50.883

> <U>
8.897

> <W>
-59.781

> <W(PB)>
-62.194

> <W(SA)>
2.414

> <Valence>
8.932

> <Coulomb>
-0.846

> <VdW>
0.811

> <VdW6>
-10.411

> <VdW12>
11.222

> <Bond>
0.240

> <Angle>
3.240

> <Pdih>
5.452

> <Idih>
0.001

> <Tether>
0.000

$$$$
VeraChem MOL file


 25 24  0  0  0  0  0  0  0  0999 V2000     
   19.8268   19.4076   27.2705 C   0  0  0  0  0  0  0  0  0  0  0  0
   20.7395   19.6263   28.0424 O   0  5  0  0  0  0  0  0  0  0  0  0
   18.7173   19.8897   27.3859 O   0  0  0  0  0  0  0  0  0  0  0  0
   20.0938   18.4921   26.0811 C   0  0  0  0  0  0  0  0  0  0  0  0
   19.1635   17.9625   25.8431 H   0  0  0  0  0  0  0  0  0  0  0  0
   20.8270   17.7375   26.3900 H   0  0  0  0  0  0  0  0  0  0  0  0
   20.6054   19.2576   24.8360 C   0  0  0  0  0  0  0  0  0  0  0  0
   19.8648   20.0193   24.5584 H   0  0  0  0  0  0  0  0  0  0  0  0
   21.5323   19.7894   25.0914 H   0  0  0  0  0  0  0  0  0  0  0  0
   20.8610   18.3074   23.6433 C   0  0  0  0  0  0  0  0  0  0  0  0
   19.9263   17.8051   23.3614 H   0  0  0  0  0  0  0  0  0  0  0  0
   21.5498   17.5128   23.9608 H   0  0  0  0  0  0  0  0  0  0  0  0
   21.4711   19.0175   22.4089 C   0  0  0  0  0  0  0  0  0  0  0  0
   22.4498   19.4317   22.6866 H   0  0  0  0  0  0  0  0  0  0  0  0
   21.6758   18.2675   21.6337 H   0  0  0  0  0  0  0  0  0  0  0  0
   20.6062   20.1549   21.8038 C   0  0  0  0  0  0  0  0  0  0  0  0
   21.1300   20.5652   20.9299 H   0  0  0  0  0  0  0  0  0  0  0  0
   20.5381   20.9815   22.5231 H   0  0  0  0  0  0  0  0  0  0  0  0
   19.1760   19.7407   21.3785 C   0  0  0  0  0  0  0  0  0  0  0  0
   18.6023   19.4096   22.2544 H   0  0  0  0  0  0  0  0  0  0  0  0
   18.6551   20.6272   20.9916 H   0  0  0  0  0  0  0  0  0  0  0  0
   19.1560   18.6403   20.2955 C   0  0  0  0  0  0  0  0  0  0  0  0
   19.5725   17.6992   20.6761 H   0  0  0  0  0  0  0  0  0  0  0  0
   18.1273   18.4413   19.9687 H   0  0  0  0  0  0  0  0  0  0  0  0
   19.7382   18.9443   19.4160 H   0  0  0  0  0  0  0  0  0  0  0  0
  1  2  1  0  0  0  0
  1  3  2  0  0  0  0
  1  4  1  0  0  0  0
  4  5  1  0  0  0  0
  4  6  1  0  0  0  0
  4  7  1  0  0  0  0
  7  8  1  0  0  0  0
  7  9  1  0  0  0  0
  7 10  1  0  0  0  0
 10 11  1  0  0  0  0
 10 12  1  0  0  0  0
 10 13  1  0  0  0  0
 13 14  1  0  0  0  0
 13 15  1  0  0  0  0
 13 16  1  0  0  0  0
 16 17  1  0  0  0  0
 16 18  1  0  0  0  0
 16 19  1  0  0  0  0
 19 20  1  0  0  0  0
 19 21  1  0  0  0  0
 19 22  1  0  0  0  0
 22 23  1  0  0  0  0
 22 24  1  0  0  0  0
 22 25  1  0  0  0  0
M  END
> <VM2 Rank>
51

> <Conf_Id>
885

> <Probability>
0.20

> <Sum Probability>
96.84

> <Delta G>
2.828

> <G>
-5.135

> <E>
-30.278

> <-TS>
25.143

> <U+W>
-50.845

> <U>
8.647

> <W>
-59.492

> <W(PB)>
-61.923

> <W(SA)>
2.431

> <Valence>
8.924

> <Coulomb>
-1.171

> <VdW>
0.894

> <VdW6>
-10.224

> <VdW12>
11.117

> <Bond>
0.231

> <Angle>
3.232

> <Pdih>
5.461

> <Idih>
0.001

> <Tether>
0.000

$$$$
VeraChem MOL file


 25 24  0  0  0  0  0  0  0  0999 V2000     
   20.0117   19.3529   27.4547 C   0  0  0  0  0  0  0  0  0  0  0  0
   20.9724   19.4999   28.1842 O   0  5  0  0  0  0  0  0  0  0  0  0
   18.8748   19.6410   27.7728 O   0  0  0  0  0  0  0  0  0  0  0  0
   20.2491   18.7974   26.0550 C   0  0  0  0  0  0  0  0  0  0  0  0
   19.3678   18.2087   25.7773 H   0  0  0  0  0  0  0  0  0  0  0  0
   21.1001   18.1076   26.1030 H   0  0  0  0  0  0  0  0  0  0  0  0
   20.5193   19.9086   25.0073 C   0  0  0  0  0  0  0  0  0  0  0  0
   19.6411   20.5647   24.9322 H   0  0  0  0  0  0  0  0  0  0  0  0
   21.3455   20.5372   25.3676 H   0  0  0  0  0  0  0  0  0  0  0  0
   20.8873   19.3650   23.6060 C   0  0  0  0  0  0  0  0  0  0  0  0
   21.7594   18.7019   23.6849 H   0  0  0  0  0  0  0  0  0  0  0  0
   21.1963   20.2147   22.9838 H   0  0  0  0  0  0  0  0  0  0  0  0
   19.7229   18.6180   22.9102 C   0  0  0  0  0  0  0  0  0  0  0  0
   19.4065   17.7729   23.5342 H   0  0  0  0  0  0  0  0  0  0  0  0
   18.8516   19.2809   22.8306 H   0  0  0  0  0  0  0  0  0  0  0  0
   20.0933   18.0607   21.5121 C   0  0  0  0  0  0  0  0  0  0  0  0
   19.2362   17.4949   21.1222 H   0  0  0  0  0  0  0  0  0  0  0  0
   20.9094   17.3341   21.6240 H   0  0  0  0  0  0  0  0  0  0  0  0
   20.5093   19.1196   20.4608 C   0  0  0  0  0  0  0  0  0  0  0  0
   21.4340   19.6223   20.7732 H   0  0  0  0  0  0  0  0  0  0  0  0
   20.7491   18.6029   19.5214 H   0  0  0  0  0  0  0  0  0  0  0  0
   19.4130   20.1707   20.1828 C   0  0  0  0  0  0  0  0  0  0  0  0
   19.2236   20.7922   21.0671 H   0  0  0  0  0  0  0  0  0  0  0  0
   19.7184   20.8380   19.3666 H   0  0  0  0  0  0  0  0  0  0  0  0
   18.4709   19.6883   19.8916 H   0  0  0  0  0  0  0  0  0  0  0  0
  1  2  1  0  0  0  0
  1  3  2  0  0  0  0
  1  4  1  0  0  0  0
  4  5  1  0  0  0  0
  4  6  1  0  0  0  0
  4  7  1  0  0  0  0
  7  8  1  0  0  0  0
  7  9  1  0  0  0  0
  7 10  1  0  0  0  0
 10 11  1  0  0  0  0
 10 12  1  0  0  0  0
 10 13  1  0  0  0  0
 13 14  1  0  0  0  0
 13 15  1  0  0  0  0
 13 16  1  0  0  0  0
 16 17  1  0  0  0  0
 16 18  1  0  0  0  0
 16 19  1  0  0  0  0
 19 20  1  0  0  0  0
 19 21  1  0  0  0  0
 19 22  1  0  0  0  0
 22 23  1  0  0  0  0
 22 24  1  0  0  0  0
 22 25  1  0  0  0  0
M  END
> <VM2 Rank>
52

> <Conf_Id>
697

> <Probability>
0.19

> <Sum Probability>
97.03

> <Delta G>
2.869

> <G>
-5.093

> <E>
-29.959

> <-TS>
24.866

> <U+W>
-50.527

> <U>
8.474

> <W>
-59.000

> <W(PB)>
-61.454

> <W(SA)>
2.453

> <Valence>
9.080

> <Coulomb>
-1.772

> <VdW>
1.165

> <VdW6>
-9.830

> <VdW12>
10.995

> <Bond>
0.240

> <Angle>
3.225

> <Pdih>
5.614

> <Idih>
0.001

> <Tether>
0.000

$$$$
VeraChem MOL file


 25 24  0  0  0  0  0  0  0  0999 V2000     
   20.4697   19.4486   27.2632 C   0  0  0  0  0  0  0  0  0  0  0  0
   21.5112   20.0680   27.3538 O   0  5  0  0  0  0  0  0  0  0  0  0
   19.5545   19.5505   28.0562 O   0  0  0  0  0  0  0  0  0  0  0  0
   20.2940   18.5049   26.0788 C   0  0  0  0  0  0  0  0  0  0  0  0
   19.6699   17.6637   26.4033 H   0  0  0  0  0  0  0  0  0  0  0  0
   21.2784   18.0975   25.8188 H   0  0  0  0  0  0  0  0  0  0  0  0
   19.6608   19.1974   24.8470 C   0  0  0  0  0  0  0  0  0  0  0  0
   18.6801   19.6076   25.1244 H   0  0  0  0  0  0  0  0  0  0  0  0
   20.2922   20.0466   24.5536 H   0  0  0  0  0  0  0  0  0  0  0  0
   19.5007   18.2207   23.6591 C   0  0  0  0  0  0  0  0  0  0  0  0
   18.9258   17.3455   23.9911 H   0  0  0  0  0  0  0  0  0  0  0  0
   20.4848   17.8408   23.3549 H   0  0  0  0  0  0  0  0  0  0  0  0
   18.7770   18.8458   22.4401 C   0  0  0  0  0  0  0  0  0  0  0  0
   18.6513   18.0747   21.6688 H   0  0  0  0  0  0  0  0  0  0  0  0
   17.7603   19.1329   22.7410 H   0  0  0  0  0  0  0  0  0  0  0  0
   19.4763   20.0829   21.8169 C   0  0  0  0  0  0  0  0  0  0  0  0
   19.4557   20.9125   22.5356 H   0  0  0  0  0  0  0  0  0  0  0  0
   18.8846   20.4222   20.9560 H   0  0  0  0  0  0  0  0  0  0  0  0
   20.9373   19.8528   21.3579 C   0  0  0  0  0  0  0  0  0  0  0  0
   21.3324   20.7977   20.9604 H   0  0  0  0  0  0  0  0  0  0  0  0
   21.5685   19.5984   22.2197 H   0  0  0  0  0  0  0  0  0  0  0  0
   21.0715   18.7624   20.2730 C   0  0  0  0  0  0  0  0  0  0  0  0
   20.4352   18.9888   19.4077 H   0  0  0  0  0  0  0  0  0  0  0  0
   22.1093   18.6950   19.9221 H   0  0  0  0  0  0  0  0  0  0  0  0
   20.7868   17.7765   20.6616 H   0  0  0  0  0  0  0  0  0  0  0  0
  1  2  1  0  0  0  0
  1  3  2  0  0  0  0
  1  4  1  0  0  0  0
  4  5  1  0  0  0  0
  4  6  1  0  0  0  0
  4  7  1  0  0  0  0
  7  8  1  0  0  0  0
  7  9  1  0  0  0  0
  7 10  1  0  0  0  0
 10 11  1  0  0  0  0
 10 12  1  0  0  0  0
 10 13  1  0  0  0  0
 13 14  1  0  0  0  0
 13 15  1  0  0  0  0
 13 16  1  0  0  0  0
 16 17  1  0  0  0  0
 16 18  1  0  0  0  0
 16 19  1  0  0  0  0
 19 20  1  0  0  0  0
 19 21  1  0  0  0  0
 19 22  1  0  0  0  0
 22 23  1  0  0  0  0
 22 24  1  0  0  0  0
 22 25  1  0  0  0  0
M  END
> <VM2 Rank>
53

> <Conf_Id>
29

> <Probability>
0.18

> <Sum Probability>
97.22

> <Delta G>
2.893

> <G>
-5.069

> <E>
-30.212

> <-TS>
25.143

> <U+W>
-50.780

> <U>
8.646

> <W>
-59.426

> <W(PB)>
-61.868

> <W(SA)>
2.442

> <Valence>
8.924

> <Coulomb>
-1.171

> <VdW>
0.894

> <VdW6>
-10.223

> <VdW12>
11.117

> <Bond>
0.231

> <Angle>
3.232

> <Pdih>
5.461

> <Idih>
0.001

> <Tether>
0.000

$$$$
VeraChem MOL file


 25 24  0  0  0  0  0  0  0  0999 V2000     
   19.9727   19.1630   27.2024 C   0  0  0  0  0  0  0  0  0  0  0  0
   20.8701   18.4598   27.6234 O   0  5  0  0  0  0  0  0  0  0  0  0
   18.7939   18.9323   27.3878 O   0  0  0  0  0  0  0  0  0  0  0  0
   20.3446   20.4159   26.4144 C   0  0  0  0  0  0  0  0  0  0  0  0
   21.3876   20.6722   26.6364 H   0  0  0  0  0  0  0  0  0  0  0  0
   19.7277   21.2384   26.7951 H   0  0  0  0  0  0  0  0  0  0  0  0
   20.1396   20.2801   24.8833 C   0  0  0  0  0  0  0  0  0  0  0  0
   19.0950   20.0042   24.6871 H   0  0  0  0  0  0  0  0  0  0  0  0
   20.3036   21.2589   24.4129 H   0  0  0  0  0  0  0  0  0  0  0  0
   21.0949   19.2417   24.2477 C   0  0  0  0  0  0  0  0  0  0  0  0
   20.8922   18.2449   24.6630 H   0  0  0  0  0  0  0  0  0  0  0  0
   22.1283   19.4885   24.5270 H   0  0  0  0  0  0  0  0  0  0  0  0
   21.0023   19.1858   22.7043 C   0  0  0  0  0  0  0  0  0  0  0  0
   21.2255   20.1789   22.2929 H   0  0  0  0  0  0  0  0  0  0  0  0
   21.7846   18.5104   22.3323 H   0  0  0  0  0  0  0  0  0  0  0  0
   19.6267   18.6954   22.1898 C   0  0  0  0  0  0  0  0  0  0  0  0
   18.8471   19.4248   22.4456 H   0  0  0  0  0  0  0  0  0  0  0  0
   19.3634   17.7622   22.7059 H   0  0  0  0  0  0  0  0  0  0  0  0
   19.6001   18.4395   20.6649 C   0  0  0  0  0  0  0  0  0  0  0  0
   20.3649   17.6966   20.3997 H   0  0  0  0  0  0  0  0  0  0  0  0
   18.6310   17.9956   20.3984 H   0  0  0  0  0  0  0  0  0  0  0  0
   19.8081   19.7204   19.8281 C   0  0  0  0  0  0  0  0  0  0  0  0
   19.6972   19.5024   18.7580 H   0  0  0  0  0  0  0  0  0  0  0  0
   19.0702   20.4881   20.0951 H   0  0  0  0  0  0  0  0  0  0  0  0
   20.8109   20.1390   19.9798 H   0  0  0  0  0  0  0  0  0  0  0  0
  1  2  1  0  0  0  0
  1  3  2  0  0  0  0
  1  4  1  0  0  0  0
  4  5  1  0  0  0  0
  4  6  1  0  0  0  0
  4  7  1  0  0  0  0
  7  8  1  0  0  0  0
  7  9  1  0  0  0  0
  7 10  1  0  0  0  0
 10 11  1  0  0  0  0
 10 12  1  0  0  0  0
 10 13  1  0  0  0  0
 13 14  1  0  0  0  0
 13 15  1  0  0  0  0
 13 16  1  0  0  0  0
 16 17  1  0  0  0  0
 16 18  1  0  0  0  0
 16 19  1  0  0  0  0
 19 20  1  0  0  0  0
 19 21  1  0  0  0  0
 19 22  1  0  0  0  0
 22 23  1  0  0  0  0
 22 24  1  0  0  0  0
 22 25  1  0  0  0  0
M  END
> <VM2 Rank>
54

> <Conf_Id>
445

> <Probability>
0.12

> <Sum Probability>
97.33

> <Delta G>
3.171

> <G>
-4.791

> <E>
-29.739

> <-TS>
24.948

> <U+W>
-50.307

> <U>
9.531

> <W>
-59.838

> <W(PB)>
-62.314

> <W(SA)>
2.476

> <Valence>
8.779

> <Coulomb>
-0.178

> <VdW>
0.930

> <VdW6>
-9.874

> <VdW12>
10.804

> <Bond>
0.204

> <Angle>
2.848

> <Pdih>
5.726

> <Idih>
0.001

> <Tether>
0.000

$$$$
VeraChem MOL file


 25 24  0  0  0  0  0  0  0  0999 V2000     
   20.0081   19.4682   27.1975 C   0  0  0  0  0  0  0  0  0  0  0  0
   21.0441   19.9604   27.5993 O   0  5  0  0  0  0  0  0  0  0  0  0
   18.9140   19.9681   27.3714 O   0  0  0  0  0  0  0  0  0  0  0  0
   20.0807   18.1391   26.4511 C   0  0  0  0  0  0  0  0  0  0  0  0
   19.2935   17.4920   26.8555 H   0  0  0  0  0  0  0  0  0  0  0  0
   21.0382   17.6582   26.6850 H   0  0  0  0  0  0  0  0  0  0  0  0
   19.9065   18.2694   24.9157 C   0  0  0  0  0  0  0  0  0  0  0  0
   19.8405   17.2646   24.4773 H   0  0  0  0  0  0  0  0  0  0  0  0
   18.9519   18.7705   24.7071 H   0  0  0  0  0  0  0  0  0  0  0  0
   21.0715   19.0410   24.2509 C   0  0  0  0  0  0  0  0  0  0  0  0
   22.0222   18.5735   24.5417 H   0  0  0  0  0  0  0  0  0  0  0  0
   21.1037   20.0705   24.6335 H   0  0  0  0  0  0  0  0  0  0  0  0
   20.9885   19.0675   22.7062 C   0  0  0  0  0  0  0  0  0  0  0  0
   21.9031   19.5340   22.3158 H   0  0  0  0  0  0  0  0  0  0  0  0
   20.9774   18.0371   22.3275 H   0  0  0  0  0  0  0  0  0  0  0  0
   19.7594   19.8424   22.1712 C   0  0  0  0  0  0  0  0  0  0  0  0
   19.7180   20.8271   22.6564 H   0  0  0  0  0  0  0  0  0  0  0  0
   18.8348   19.3188   22.4470 H   0  0  0  0  0  0  0  0  0  0  0  0
   19.7865   20.0492   20.6389 C   0  0  0  0  0  0  0  0  0  0  0  0
   18.9433   20.6939   20.3548 H   0  0  0  0  0  0  0  0  0  0  0  0
   20.6997   20.5891   20.3531 H   0  0  0  0  0  0  0  0  0  0  0  0
   19.6936   18.7287   19.8439 C   0  0  0  0  0  0  0  0  0  0  0  0
   18.8009   18.1586   20.1322 H   0  0  0  0  0  0  0  0  0  0  0  0
   19.6317   18.9322   18.7670 H   0  0  0  0  0  0  0  0  0  0  0  0
   20.5749   18.0972   20.0126 H   0  0  0  0  0  0  0  0  0  0  0  0
  1  2  1  0  0  0  0
  1  3  2  0  0  0  0
  1  4  1  0  0  0  0
  4  5  1  0  0  0  0
  4  6  1  0  0  0  0
  4  7  1  0  0  0  0
  7  8  1  0  0  0  0
  7  9  1  0  0  0  0
  7 10  1  0  0  0  0
 10 11  1  0  0  0  0
 10 12  1  0  0  0  0
 10 13  1  0  0  0  0
 13 14  1  0  0  0  0
 13 15  1  0  0  0  0
 13 16  1  0  0  0  0
 16 17  1  0  0  0  0
 16 18  1  0  0  0  0
 16 19  1  0  0  0  0
 19 20  1  0  0  0  0
 19 21  1  0  0  0  0
 19 22  1  0  0  0  0
 22 23  1  0  0  0  0
 22 24  1  0  0  0  0
 22 25  1  0  0  0  0
M  END
> <VM2 Rank>
55

> <Conf_Id>
963

> <Probability>
0.11

> <Sum Probability>
97.44

> <Delta G>
3.206

> <G>
-4.756

> <E>
-29.704

> <-TS>
24.948

> <U+W>
-50.271

> <U>
9.530

> <W>
-59.801

> <W(PB)>
-62.267

> <W(SA)>
2.465

> <Valence>
8.779

> <Coulomb>
-0.179

> <VdW>
0.930

> <VdW6>
-9.874

> <VdW12>
10.804

> <Bond>
0.204

> <Angle>
2.848

> <Pdih>
5.726

> <Idih>
0.001

> <Tether>
0.000

$$$$
VeraChem MOL file


 25 24  0  0  0  0  0  0  0  0999 V2000     
   20.0300   19.1914   27.3200 C   0  0  0  0  0  0  0  0  0  0  0  0
   21.0713   18.7162   27.7284 O   0  5  0  0  0  0  0  0  0  0  0  0
   18.9318   18.7893   27.6507 O   0  0  0  0  0  0  0  0  0  0  0  0
   20.1029   20.3696   26.3527 C   0  0  0  0  0  0  0  0  0  0  0  0
   21.1002   20.8205   26.4239 H   0  0  0  0  0  0  0  0  0  0  0  0
   19.3879   21.1239   26.7017 H   0  0  0  0  0  0  0  0  0  0  0  0
   19.7868   19.9991   24.8802 C   0  0  0  0  0  0  0  0  0  0  0  0
   18.8028   19.5126   24.8305 H   0  0  0  0  0  0  0  0  0  0  0  0
   19.7122   20.9255   24.2967 H   0  0  0  0  0  0  0  0  0  0  0  0
   20.8606   19.0756   24.2562 C   0  0  0  0  0  0  0  0  0  0  0  0
   20.9692   18.1764   24.8780 H   0  0  0  0  0  0  0  0  0  0  0  0
   21.8363   19.5801   24.2696 H   0  0  0  0  0  0  0  0  0  0  0  0
   20.5259   18.6313   22.8124 C   0  0  0  0  0  0  0  0  0  0  0  0
   21.2727   17.8914   22.4939 H   0  0  0  0  0  0  0  0  0  0  0  0
   19.5560   18.1169   22.8093 H   0  0  0  0  0  0  0  0  0  0  0  0
   20.5100   19.7998   21.7965 C   0  0  0  0  0  0  0  0  0  0  0  0
   21.4370   20.3793   21.9025 H   0  0  0  0  0  0  0  0  0  0  0  0
   19.6839   20.4860   22.0241 H   0  0  0  0  0  0  0  0  0  0  0  0
   20.3877   19.3310   20.3278 C   0  0  0  0  0  0  0  0  0  0  0  0
   20.4905   20.2042   19.6689 H   0  0  0  0  0  0  0  0  0  0  0  0
   21.2205   18.6576   20.0825 H   0  0  0  0  0  0  0  0  0  0  0  0
   19.0461   18.6308   20.0212 C   0  0  0  0  0  0  0  0  0  0  0  0
   18.1974   19.2759   20.2834 H   0  0  0  0  0  0  0  0  0  0  0  0
   18.9725   18.3930   18.9521 H   0  0  0  0  0  0  0  0  0  0  0  0
   18.9490   17.6905   20.5782 H   0  0  0  0  0  0  0  0  0  0  0  0
  1  2  1  0  0  0  0
  1  3  2  0  0  0  0
  1  4  1  0  0  0  0
  4  5  1  0  0  0  0
  4  6  1  0  0  0  0
  4  7  1  0  0  0  0
  7  8  1  0  0  0  0
  7  9  1  0  0  0  0
  7 10  1  0  0  0  0
 10 11  1  0  0  0  0
 10 12  1  0  0  0  0
 10 13  1  0  0  0  0
 13 14  1  0  0  0  0
 13 15  1  0  0  0  0
 13 16  1  0  0  0  0
 16 17  1  0  0  0  0
 16 18  1  0  0  0  0
 16 19  1  0  0  0  0
 19 20  1  0  0  0  0
 19 21  1  0  0  0  0
 19 22  1  0  0  0  0
 22 23  1  0  0  0  0
 22 24  1  0  0  0  0
 22 25  1  0  0  0  0
M  END
> <VM2 Rank>
56

> <Conf_Id>
798

> <Probability>
0.11

> <Sum Probability>
97.55

> <Delta G>
3.212

> <G>
-4.750

> <E>
-29.709

> <-TS>
24.959

> <U+W>
-50.277

> <U>
9.318

> <W>
-59.595

> <W(PB)>
-62.049

> <W(SA)>
2.454

> <Valence>
8.828

> <Coulomb>
-0.523

> <VdW>
1.014

> <VdW6>
-9.806

> <VdW12>
10.819

> <Bond>
0.208

> <Angle>
2.883

> <Pdih>
5.736

> <Idih>
0.001

> <Tether>
0.000

$$$$
VeraChem MOL file


 25 24  0  0  0  0  0  0  0  0999 V2000     
   20.1299   19.6133   27.1785 C   0  0  0  0  0  0  0  0  0  0  0  0
   21.2436   20.0173   27.4495 O   0  5  0  0  0  0  0  0  0  0  0  0
   19.1160   20.2551   27.3712 O   0  0  0  0  0  0  0  0  0  0  0  0
   19.9930   18.2151   26.5823 C   0  0  0  0  0  0  0  0  0  0  0  0
   19.1746   17.7117   27.1103 H   0  0  0  0  0  0  0  0  0  0  0  0
   20.9070   17.6501   26.8015 H   0  0  0  0  0  0  0  0  0  0  0  0
   19.7091   18.2063   25.0577 C   0  0  0  0  0  0  0  0  0  0  0  0
   19.4975   17.1764   24.7403 H   0  0  0  0  0  0  0  0  0  0  0  0
   18.8012   18.7921   24.8627 H   0  0  0  0  0  0  0  0  0  0  0  0
   20.8942   18.7623   24.2321 C   0  0  0  0  0  0  0  0  0  0  0  0
   21.8083   18.2223   24.5143 H   0  0  0  0  0  0  0  0  0  0  0  0
   21.0668   19.8166   24.4890 H   0  0  0  0  0  0  0  0  0  0  0  0
   20.6996   18.6296   22.7027 C   0  0  0  0  0  0  0  0  0  0  0  0
   21.6419   18.9111   22.2159 H   0  0  0  0  0  0  0  0  0  0  0  0
   20.5177   17.5776   22.4444 H   0  0  0  0  0  0  0  0  0  0  0  0
   19.5524   19.5101   22.1486 C   0  0  0  0  0  0  0  0  0  0  0  0
   19.7328   20.5616   22.4105 H   0  0  0  0  0  0  0  0  0  0  0  0
   18.6085   19.2266   22.6311 H   0  0  0  0  0  0  0  0  0  0  0  0
   19.3640   19.3829   20.6187 C   0  0  0  0  0  0  0  0  0  0  0  0
   19.1949   18.3305   20.3517 H   0  0  0  0  0  0  0  0  0  0  0  0
   18.4532   19.9258   20.3306 H   0  0  0  0  0  0  0  0  0  0  0  0
   20.5513   19.9421   19.8047 C   0  0  0  0  0  0  0  0  0  0  0  0
   21.4623   19.3527   19.9662 H   0  0  0  0  0  0  0  0  0  0  0  0
   20.3260   19.9160   18.7308 H   0  0  0  0  0  0  0  0  0  0  0  0
   20.7609   20.9838   20.0806 H   0  0  0  0  0  0  0  0  0  0  0  0
  1  2  1  0  0  0  0
  1  3  2  0  0  0  0
  1  4  1  0  0  0  0
  4  5  1  0  0  0  0
  4  6  1  0  0  0  0
  4  7  1  0  0  0  0
  7  8  1  0  0  0  0
  7  9  1  0  0  0  0
  7 10  1  0  0  0  0
 10 11  1  0  0  0  0
 10 12  1  0  0  0  0
 10 13  1  0  0  0  0
 13 14  1  0  0  0  0
 13 15  1  0  0  0  0
 13 16  1  0  0  0  0
 16 17  1  0  0  0  0
 16 18  1  0  0  0  0
 16 19  1  0  0  0  0
 19 20  1  0  0  0  0
 19 21  1  0  0  0  0
 19 22  1  0  0  0  0
 22 23  1  0  0  0  0
 22 24  1  0  0  0  0
 22 25  1  0  0  0  0
M  END
> <VM2 Rank>
57

> <Conf_Id>
437

> <Probability>
0.11

> <Sum Probability>
97.65

> <Delta G>
3.220

> <G>
-4.743

> <E>
-29.611

> <-TS>
24.868

> <U+W>
-50.179

> <U>
9.764

> <W>
-59.942

> <W(PB)>
-62.393

> <W(SA)>
2.450

> <Valence>
8.883

> <Coulomb>
-0.122

> <VdW>
1.003

> <VdW6>
-9.782

> <VdW12>
10.785

> <Bond>
0.212

> <Angle>
2.940

> <Pdih>
5.730

> <Idih>
0.001

> <Tether>
0.000

$$$$
VeraChem MOL file


 25 24  0  0  0  0  0  0  0  0999 V2000     
   20.0304   19.4114   27.3164 C   0  0  0  0  0  0  0  0  0  0  0  0
   21.0736   19.8951   27.7098 O   0  5  0  0  0  0  0  0  0  0  0  0
   18.9338   19.8280   27.6342 O   0  0  0  0  0  0  0  0  0  0  0  0
   20.0986   18.2027   26.3871 C   0  0  0  0  0  0  0  0  0  0  0  0
   19.3806   17.4628   26.7599 H   0  0  0  0  0  0  0  0  0  0  0  0
   21.0940   17.7503   26.4728 H   0  0  0  0  0  0  0  0  0  0  0  0
   19.7839   18.5274   24.9035 C   0  0  0  0  0  0  0  0  0  0  0  0
   19.7057   17.5832   24.3498 H   0  0  0  0  0  0  0  0  0  0  0  0
   18.8019   19.0160   24.8383 H   0  0  0  0  0  0  0  0  0  0  0  0
   20.8614   19.4262   24.2506 C   0  0  0  0  0  0  0  0  0  0  0  0
   21.8351   18.9184   24.2800 H   0  0  0  0  0  0  0  0  0  0  0  0
   20.9738   20.3442   24.8435 H   0  0  0  0  0  0  0  0  0  0  0  0
   20.5284   19.8258   22.7934 C   0  0  0  0  0  0  0  0  0  0  0  0
   19.5606   20.3439   22.7739 H   0  0  0  0  0  0  0  0  0  0  0  0
   21.2782   20.5521   22.4515 H   0  0  0  0  0  0  0  0  0  0  0  0
   20.5075   18.6257   21.8151 C   0  0  0  0  0  0  0  0  0  0  0  0
   19.6786   17.9505   22.0644 H   0  0  0  0  0  0  0  0  0  0  0  0
   21.4322   18.0460   21.9395 H   0  0  0  0  0  0  0  0  0  0  0  0
   20.3871   19.0481   20.3323 C   0  0  0  0  0  0  0  0  0  0  0  0
   21.2226   19.7099   20.0657 H   0  0  0  0  0  0  0  0  0  0  0  0
   20.4862   18.1540   19.7015 H   0  0  0  0  0  0  0  0  0  0  0  0
   19.0483   19.7437   20.0035 C   0  0  0  0  0  0  0  0  0  0  0  0
   18.9756   19.9477   18.9274 H   0  0  0  0  0  0  0  0  0  0  0  0
   18.1970   19.1108   20.2861 H   0  0  0  0  0  0  0  0  0  0  0  0
   18.9551   20.7016   20.5304 H   0  0  0  0  0  0  0  0  0  0  0  0
  1  2  1  0  0  0  0
  1  3  2  0  0  0  0
  1  4  1  0  0  0  0
  4  5  1  0  0  0  0
  4  6  1  0  0  0  0
  4  7  1  0  0  0  0
  7  8  1  0  0  0  0
  7  9  1  0  0  0  0
  7 10  1  0  0  0  0
 10 11  1  0  0  0  0
 10 12  1  0  0  0  0
 10 13  1  0  0  0  0
 13 14  1  0  0  0  0
 13 15  1  0  0  0  0
 13 16  1  0  0  0  0
 16 17  1  0  0  0  0
 16 18  1  0  0  0  0
 16 19  1  0  0  0  0
 19 20  1  0  0  0  0
 19 21  1  0  0  0  0
 19 22  1  0  0  0  0
 22 23  1  0  0  0  0
 22 24  1  0  0  0  0
 22 25  1  0  0  0  0
M  END
> <VM2 Rank>
58

> <Conf_Id>
782

> <Probability>
0.11

> <Sum Probability>
97.76

> <Delta G>
3.222

> <G>
-4.740

> <E>
-29.699

> <-TS>
24.958

> <U+W>
-50.266

> <U>
9.318

> <W>
-59.584

> <W(PB)>
-62.042

> <W(SA)>
2.458

> <Valence>
8.828

> <Coulomb>
-0.524

> <VdW>
1.014

> <VdW6>
-9.805

> <VdW12>
10.819

> <Bond>
0.208

> <Angle>
2.883

> <Pdih>
5.736

> <Idih>
0.000

> <Tether>
0.000

$$$$
VeraChem MOL file


 25 24  0  0  0  0  0  0  0  0999 V2000     
   20.0888   19.4181   27.3598 C   0  0  0  0  0  0  0  0  0  0  0  0
   20.9782   20.1345   27.7754 O   0  5  0  0  0  0  0  0  0  0  0  0
   18.9169   19.5662   27.6457 O   0  0  0  0  0  0  0  0  0  0  0  0
   20.4688   18.2582   26.4436 C   0  0  0  0  0  0  0  0  0  0  0  0
   19.6470   17.5319   26.4383 H   0  0  0  0  0  0  0  0  0  0  0  0
   21.3333   17.7561   26.8935 H   0  0  0  0  0  0  0  0  0  0  0  0
   20.8153   18.6852   24.9933 C   0  0  0  0  0  0  0  0  0  0  0  0
   21.6109   19.4428   25.0176 H   0  0  0  0  0  0  0  0  0  0  0  0
   21.2223   17.8147   24.4638 H   0  0  0  0  0  0  0  0  0  0  0  0
   19.5884   19.2368   24.2276 C   0  0  0  0  0  0  0  0  0  0  0  0
   19.1515   20.0667   24.7997 H   0  0  0  0  0  0  0  0  0  0  0  0
   18.8113   18.4629   24.1644 H   0  0  0  0  0  0  0  0  0  0  0  0
   19.9243   19.7518   22.8074 C   0  0  0  0  0  0  0  0  0  0  0  0
   19.0350   20.2594   22.4129 H   0  0  0  0  0  0  0  0  0  0  0  0
   20.7147   20.5121   22.8694 H   0  0  0  0  0  0  0  0  0  0  0  0
   20.3519   18.6310   21.8278 C   0  0  0  0  0  0  0  0  0  0  0  0
   19.5633   17.8684   21.7701 H   0  0  0  0  0  0  0  0  0  0  0  0
   21.2455   18.1267   22.2164 H   0  0  0  0  0  0  0  0  0  0  0  0
   20.6761   19.1481   20.4065 C   0  0  0  0  0  0  0  0  0  0  0  0
   21.4558   19.9202   20.4613 H   0  0  0  0  0  0  0  0  0  0  0  0
   21.0998   18.3211   19.8201 H   0  0  0  0  0  0  0  0  0  0  0  0
   19.4444   19.7040   19.6589 C   0  0  0  0  0  0  0  0  0  0  0  0
   19.0564   20.6096   20.1413 H   0  0  0  0  0  0  0  0  0  0  0  0
   19.7089   19.9662   18.6264 H   0  0  0  0  0  0  0  0  0  0  0  0
   18.6380   18.9600   19.6223 H   0  0  0  0  0  0  0  0  0  0  0  0
  1  2  1  0  0  0  0
  1  3  2  0  0  0  0
  1  4  1  0  0  0  0
  4  5  1  0  0  0  0
  4  6  1  0  0  0  0
  4  7  1  0  0  0  0
  7  8  1  0  0  0  0
  7  9  1  0  0  0  0
  7 10  1  0  0  0  0
 10 11  1  0  0  0  0
 10 12  1  0  0  0  0
 10 13  1  0  0  0  0
 13 14  1  0  0  0  0
 13 15  1  0  0  0  0
 13 16  1  0  0  0  0
 16 17  1  0  0  0  0
 16 18  1  0  0  0  0
 16 19  1  0  0  0  0
 19 20  1  0  0  0  0
 19 21  1  0  0  0  0
 19 22  1  0  0  0  0
 22 23  1  0  0  0  0
 22 24  1  0  0  0  0
 22 25  1  0  0  0  0
M  END
> <VM2 Rank>
59

> <Conf_Id>
894

> <Probability>
0.10

> <Sum Probability>
97.86

> <Delta G>
3.259

> <G>
-4.704

> <E>
-29.575

> <-TS>
24.871

> <U+W>
-50.142

> <U>
9.416

> <W>
-59.559

> <W(PB)>
-62.023

> <W(SA)>
2.464

> <Valence>
8.939

> <Coulomb>
-0.615

> <VdW>
1.091

> <VdW6>
-9.710

> <VdW12>
10.802

> <Bond>
0.216

> <Angle>
2.980

> <Pdih>
5.743

> <Idih>
0.000

> <Tether>
0.000

$$$$
VeraChem MOL file


 25 24  0  0  0  0  0  0  0  0999 V2000     
   19.9996   19.0107   27.1882 C   0  0  0  0  0  0  0  0  0  0  0  0
   20.8488   18.1912   27.4785 O   0  5  0  0  0  0  0  0  0  0  0  0
   18.8124   18.8509   27.3933 O   0  0  0  0  0  0  0  0  0  0  0  0
   20.4485   20.3218   26.5489 C   0  0  0  0  0  0  0  0  0  0  0  0
   21.5157   20.4651   26.7569 H   0  0  0  0  0  0  0  0  0  0  0  0
   19.9145   21.1340   27.0560 H   0  0  0  0  0  0  0  0  0  0  0  0
   20.1835   20.4008   25.0230 C   0  0  0  0  0  0  0  0  0  0  0  0
   19.1136   20.2367   24.8399 H   0  0  0  0  0  0  0  0  0  0  0  0
   20.4142   21.4160   24.6730 H   0  0  0  0  0  0  0  0  0  0  0  0
   21.0277   19.3801   24.2224 C   0  0  0  0  0  0  0  0  0  0  0  0
   20.7510   18.3570   24.5122 H   0  0  0  0  0  0  0  0  0  0  0  0
   22.0850   19.5025   24.4942 H   0  0  0  0  0  0  0  0  0  0  0  0
   20.8954   19.5350   22.6884 C   0  0  0  0  0  0  0  0  0  0  0  0
   21.1628   20.5598   22.3973 H   0  0  0  0  0  0  0  0  0  0  0  0
   21.6341   18.8747   22.2165 H   0  0  0  0  0  0  0  0  0  0  0  0
   19.4833   19.1909   22.1536 C   0  0  0  0  0  0  0  0  0  0  0  0
   18.7441   19.8535   22.6212 H   0  0  0  0  0  0  0  0  0  0  0  0
   19.2149   18.1672   22.4483 H   0  0  0  0  0  0  0  0  0  0  0  0
   19.3544   19.3383   20.6193 C   0  0  0  0  0  0  0  0  0  0  0  0
   18.2988   19.2117   20.3418 H   0  0  0  0  0  0  0  0  0  0  0  0
   19.6333   20.3580   20.3197 H   0  0  0  0  0  0  0  0  0  0  0  0
   20.1994   18.3143   19.8304 C   0  0  0  0  0  0  0  0  0  0  0  0
   19.9617   17.2879   20.1389 H   0  0  0  0  0  0  0  0  0  0  0  0
   19.9979   18.3988   18.7547 H   0  0  0  0  0  0  0  0  0  0  0  0
   21.2735   18.4794   19.9800 H   0  0  0  0  0  0  0  0  0  0  0  0
  1  2  1  0  0  0  0
  1  3  2  0  0  0  0
  1  4  1  0  0  0  0
  4  5  1  0  0  0  0
  4  6  1  0  0  0  0
  4  7  1  0  0  0  0
  7  8  1  0  0  0  0
  7  9  1  0  0  0  0
  7 10  1  0  0  0  0
 10 11  1  0  0  0  0
 10 12  1  0  0  0  0
 10 13  1  0  0  0  0
 13 14  1  0  0  0  0
 13 15  1  0  0  0  0
 13 16  1  0  0  0  0
 16 17  1  0  0  0  0
 16 18  1  0  0  0  0
 16 19  1  0  0  0  0
 19 20  1  0  0  0  0
 19 21  1  0  0  0  0
 19 22  1  0  0  0  0
 22 23  1  0  0  0  0
 22 24  1  0  0  0  0
 22 25  1  0  0  0  0
M  END
> <VM2 Rank>
60

> <Conf_Id>
222

> <Probability>
0.09

> <Sum Probability>
97.95

> <Delta G>
3.287

> <G>
-4.675

> <E>
-29.543

> <-TS>
24.868

> <U+W>
-50.111

> <U>
9.764

> <W>
-59.875

> <W(PB)>
-62.332

> <W(SA)>
2.457

> <Valence>
8.882

> <Coulomb>
-0.121

> <VdW>
1.003

> <VdW6>
-9.782

> <VdW12>
10.785

> <Bond>
0.212

> <Angle>
2.941

> <Pdih>
5.730

> <Idih>
0.001

> <Tether>
0.000

$$$$
VeraChem MOL file


 25 24  0  0  0  0  0  0  0  0999 V2000     
   19.8535   19.4072   27.1024 C   0  0  0  0  0  0  0  0  0  0  0  0
   20.7356   19.8755   27.7951 O   0  5  0  0  0  0  0  0  0  0  0  0
   18.7452   19.8959   27.0030 O   0  0  0  0  0  0  0  0  0  0  0  0
   20.1497   18.1233   26.3323 C   0  0  0  0  0  0  0  0  0  0  0  0
   19.1980   17.6579   26.0486 H   0  0  0  0  0  0  0  0  0  0  0  0
   20.6468   17.4333   27.0242 H   0  0  0  0  0  0  0  0  0  0  0  0
   21.0390   18.3307   25.0789 C   0  0  0  0  0  0  0  0  0  0  0  0
   21.9767   18.8211   25.3752 H   0  0  0  0  0  0  0  0  0  0  0  0
   21.3114   17.3489   24.6685 H   0  0  0  0  0  0  0  0  0  0  0  0
   20.3360   19.1627   23.9827 C   0  0  0  0  0  0  0  0  0  0  0  0
   20.0801   20.1555   24.3777 H   0  0  0  0  0  0  0  0  0  0  0  0
   19.3918   18.6734   23.7106 H   0  0  0  0  0  0  0  0  0  0  0  0
   21.2258   19.3218   22.7284 C   0  0  0  0  0  0  0  0  0  0  0  0
   22.1948   19.7420   23.0301 H   0  0  0  0  0  0  0  0  0  0  0  0
   21.4427   18.3349   22.2992 H   0  0  0  0  0  0  0  0  0  0  0  0
   20.6104   20.2453   21.6468 C   0  0  0  0  0  0  0  0  0  0  0  0
   21.3265   20.3443   20.8197 H   0  0  0  0  0  0  0  0  0  0  0  0
   20.4912   21.2534   22.0665 H   0  0  0  0  0  0  0  0  0  0  0  0
   19.2483   19.7797   21.0752 C   0  0  0  0  0  0  0  0  0  0  0  0
   18.4873   19.7738   21.8668 H   0  0  0  0  0  0  0  0  0  0  0  0
   18.9095   20.5174   20.3349 H   0  0  0  0  0  0  0  0  0  0  0  0
   19.3095   18.3919   20.4011 C   0  0  0  0  0  0  0  0  0  0  0  0
   19.5322   17.6038   21.1314 H   0  0  0  0  0  0  0  0  0  0  0  0
   18.3468   18.1493   19.9331 H   0  0  0  0  0  0  0  0  0  0  0  0
   20.0813   18.3678   19.6209 H   0  0  0  0  0  0  0  0  0  0  0  0
  1  2  1  0  0  0  0
  1  3  2  0  0  0  0
  1  4  1  0  0  0  0
  4  5  1  0  0  0  0
  4  6  1  0  0  0  0
  4  7  1  0  0  0  0
  7  8  1  0  0  0  0
  7  9  1  0  0  0  0
  7 10  1  0  0  0  0
 10 11  1  0  0  0  0
 10 12  1  0  0  0  0
 10 13  1  0  0  0  0
 13 14  1  0  0  0  0
 13 15  1  0  0  0  0
 13 16  1  0  0  0  0
 16 17  1  0  0  0  0
 16 18  1  0  0  0  0
 16 19  1  0  0  0  0
 19 20  1  0  0  0  0
 19 21  1  0  0  0  0
 19 22  1  0  0  0  0
 22 23  1  0  0  0  0
 22 24  1  0  0  0  0
 22 25  1  0  0  0  0
M  END
> <VM2 Rank>
61

> <Conf_Id>
244

> <Probability>
0.09

> <Sum Probability>
98.05

> <Delta G>
3.298

> <G>
-4.665

> <E>
-29.775

> <-TS>
25.111

> <U+W>
-50.343

> <U>
9.795

> <W>
-60.138

> <W(PB)>
-62.575

> <W(SA)>
2.436

> <Valence>
8.739

> <Coulomb>
0.241

> <VdW>
0.816

> <VdW6>
-10.096

> <VdW12>
10.911

> <Bond>
0.210

> <Angle>
3.062

> <Pdih>
5.466

> <Idih>
0.001

> <Tether>
0.000

$$$$
VeraChem MOL file


 25 24  0  0  0  0  0  0  0  0999 V2000     
   20.2106   19.4260   27.3584 C   0  0  0  0  0  0  0  0  0  0  0  0
   21.3604   19.7223   27.6176 O   0  5  0  0  0  0  0  0  0  0  0  0
   19.2471   20.0241   27.7953 O   0  0  0  0  0  0  0  0  0  0  0  0
   19.9603   18.2258   26.4495 C   0  0  0  0  0  0  0  0  0  0  0  0
   19.1772   17.6185   26.9185 H   0  0  0  0  0  0  0  0  0  0  0  0
   20.8674   17.6098   26.4243 H   0  0  0  0  0  0  0  0  0  0  0  0
   19.5290   18.6030   25.0082 C   0  0  0  0  0  0  0  0  0  0  0  0
   19.2240   17.6870   24.4869 H   0  0  0  0  0  0  0  0  0  0  0  0
   18.6444   19.2534   25.0518 H   0  0  0  0  0  0  0  0  0  0  0  0
   20.6579   19.3049   24.2152 C   0  0  0  0  0  0  0  0  0  0  0  0
   21.5254   18.6360   24.1330 H   0  0  0  0  0  0  0  0  0  0  0  0
   20.9989   20.1845   24.7783 H   0  0  0  0  0  0  0  0  0  0  0  0
   20.2266   19.7710   22.8039 C   0  0  0  0  0  0  0  0  0  0  0  0
   19.3476   20.4247   22.8853 H   0  0  0  0  0  0  0  0  0  0  0  0
   21.0349   20.3870   22.3898 H   0  0  0  0  0  0  0  0  0  0  0  0
   19.9227   18.6035   21.8327 C   0  0  0  0  0  0  0  0  0  0  0  0
   19.1097   17.9901   22.2411 H   0  0  0  0  0  0  0  0  0  0  0  0
   20.8003   17.9474   21.7557 H   0  0  0  0  0  0  0  0  0  0  0  0
   19.5025   19.0731   20.4201 C   0  0  0  0  0  0  0  0  0  0  0  0
   19.1742   18.1981   19.8424 H   0  0  0  0  0  0  0  0  0  0  0  0
   18.6323   19.7398   20.4941 H   0  0  0  0  0  0  0  0  0  0  0  0
   20.6358   19.7803   19.6451 C   0  0  0  0  0  0  0  0  0  0  0  0
   21.5293   19.1450   19.5888 H   0  0  0  0  0  0  0  0  0  0  0  0
   20.3163   20.0052   18.6194 H   0  0  0  0  0  0  0  0  0  0  0  0
   20.9163   20.7286   20.1199 H   0  0  0  0  0  0  0  0  0  0  0  0
  1  2  1  0  0  0  0
  1  3  2  0  0  0  0
  1  4  1  0  0  0  0
  4  5  1  0  0  0  0
  4  6  1  0  0  0  0
  4  7  1  0  0  0  0
  7  8  1  0  0  0  0
  7  9  1  0  0  0  0
  7 10  1  0  0  0  0
 10 11  1  0  0  0  0
 10 12  1  0  0  0  0
 10 13  1  0  0  0  0
 13 14  1  0  0  0  0
 13 15  1  0  0  0  0
 13 16  1  0  0  0  0
 16 17  1  0  0  0  0
 16 18  1  0  0  0  0
 16 19  1  0  0  0  0
 19 20  1  0  0  0  0
 19 21  1  0  0  0  0
 19 22  1  0  0  0  0
 22 23  1  0  0  0  0
 22 24  1  0  0  0  0
 22 25  1  0  0  0  0
M  END
> <VM2 Rank>
62

> <Conf_Id>
308

> <Probability>
0.09

> <Sum Probability>
98.14

> <Delta G>
3.305

> <G>
-4.657

> <E>
-29.528

> <-TS>
24.871

> <U+W>
-50.096

> <U>
9.416

> <W>
-59.512

> <W(PB)>
-61.988

> <W(SA)>
2.476

> <Valence>
8.939

> <Coulomb>
-0.615

> <VdW>
1.091

> <VdW6>
-9.710

> <VdW12>
10.802

> <Bond>
0.216

> <Angle>
2.980

> <Pdih>
5.743

> <Idih>
0.000

> <Tether>
0.000

$$$$
VeraChem MOL file


 25 24  0  0  0  0  0  0  0  0999 V2000     
   20.1865   19.8265   26.8662 C   0  0  0  0  0  0  0  0  0  0  0  0
   21.2239   20.4502   26.7579 O   0  5  0  0  0  0  0  0  0  0  0  0
   19.1328   20.3270   27.2071 O   0  0  0  0  0  0  0  0  0  0  0  0
   20.2111   18.3272   26.5817 C   0  0  0  0  0  0  0  0  0  0  0  0
   19.6748   17.8299   27.3984 H   0  0  0  0  0  0  0  0  0  0  0  0
   21.2503   17.9794   26.6258 H   0  0  0  0  0  0  0  0  0  0  0  0
   19.5713   17.9320   25.2254 C   0  0  0  0  0  0  0  0  0  0  0  0
   19.5066   16.8371   25.1677 H   0  0  0  0  0  0  0  0  0  0  0  0
   18.5412   18.3126   25.1842 H   0  0  0  0  0  0  0  0  0  0  0  0
   20.3723   18.4604   24.0142 C   0  0  0  0  0  0  0  0  0  0  0  0
   21.4036   18.0855   24.0636 H   0  0  0  0  0  0  0  0  0  0  0  0
   20.4270   19.5558   24.0661 H   0  0  0  0  0  0  0  0  0  0  0  0
   19.7297   18.0329   22.6745 C   0  0  0  0  0  0  0  0  0  0  0  0
   19.6138   16.9406   22.6667 H   0  0  0  0  0  0  0  0  0  0  0  0
   18.7155   18.4468   22.6012 H   0  0  0  0  0  0  0  0  0  0  0  0
   20.5596   18.4429   21.4317 C   0  0  0  0  0  0  0  0  0  0  0  0
   20.0608   18.0564   20.5325 H   0  0  0  0  0  0  0  0  0  0  0  0
   21.5361   17.9417   21.4754 H   0  0  0  0  0  0  0  0  0  0  0  0
   20.7883   19.9652   21.2606 C   0  0  0  0  0  0  0  0  0  0  0  0
   21.3787   20.3564   22.0997 H   0  0  0  0  0  0  0  0  0  0  0  0
   21.3965   20.1281   20.3602 H   0  0  0  0  0  0  0  0  0  0  0  0
   19.4774   20.7698   21.1266 C   0  0  0  0  0  0  0  0  0  0  0  0
   18.8584   20.3796   20.3083 H   0  0  0  0  0  0  0  0  0  0  0  0
   18.8900   20.7309   22.0527 H   0  0  0  0  0  0  0  0  0  0  0  0
   19.6939   21.8247   20.9145 H   0  0  0  0  0  0  0  0  0  0  0  0
  1  2  1  0  0  0  0
  1  3  2  0  0  0  0
  1  4  1  0  0  0  0
  4  5  1  0  0  0  0
  4  6  1  0  0  0  0
  4  7  1  0  0  0  0
  7  8  1  0  0  0  0
  7  9  1  0  0  0  0
  7 10  1  0  0  0  0
 10 11  1  0  0  0  0
 10 12  1  0  0  0  0
 10 13  1  0  0  0  0
 13 14  1  0  0  0  0
 13 15  1  0  0  0  0
 13 16  1  0  0  0  0
 16 17  1  0  0  0  0
 16 18  1  0  0  0  0
 16 19  1  0  0  0  0
 19 20  1  0  0  0  0
 19 21  1  0  0  0  0
 19 22  1  0  0  0  0
 22 23  1  0  0  0  0
 22 24  1  0  0  0  0
 22 25  1  0  0  0  0
M  END
> <VM2 Rank>
63

> <Conf_Id>
1116

> <Probability>
0.09

> <Sum Probability>
98.23

> <Delta G>
3.340

> <G>
-4.622

> <E>
-29.747

> <-TS>
25.125

> <U+W>
-50.315

> <U>
10.400

> <W>
-60.715

> <W(PB)>
-63.154

> <W(SA)>
2.439

> <Valence>
8.736

> <Coulomb>
0.892

> <VdW>
0.772

> <VdW6>
-10.163

> <VdW12>
10.935

> <Bond>
0.210

> <Angle>
3.058

> <Pdih>
5.467

> <Idih>
0.001

> <Tether>
0.000

$$$$
VeraChem MOL file


 25 24  0  0  0  0  0  0  0  0999 V2000     
   20.0852   19.5333   27.2081 C   0  0  0  0  0  0  0  0  0  0  0  0
   21.0373   19.0965   27.8244 O   0  5  0  0  0  0  0  0  0  0  0  0
   18.9295   19.3427   27.5321 O   0  0  0  0  0  0  0  0  0  0  0  0
   20.3586   20.3837   25.9706 C   0  0  0  0  0  0  0  0  0  0  0  0
   21.1442   21.1015   26.2342 H   0  0  0  0  0  0  0  0  0  0  0  0
   19.4591   20.9676   25.7408 H   0  0  0  0  0  0  0  0  0  0  0  0
   20.7990   19.5678   24.7274 C   0  0  0  0  0  0  0  0  0  0  0  0
   21.1163   20.2699   23.9457 H   0  0  0  0  0  0  0  0  0  0  0  0
   21.6768   18.9584   24.9832 H   0  0  0  0  0  0  0  0  0  0  0  0
   19.6706   18.6600   24.1820 C   0  0  0  0  0  0  0  0  0  0  0  0
   18.8071   19.2737   23.8941 H   0  0  0  0  0  0  0  0  0  0  0  0
   19.3173   18.0012   24.9870 H   0  0  0  0  0  0  0  0  0  0  0  0
   20.1119   17.7728   22.9907 C   0  0  0  0  0  0  0  0  0  0  0  0
   20.9033   17.0910   23.3306 H   0  0  0  0  0  0  0  0  0  0  0  0
   19.2681   17.1338   22.6970 H   0  0  0  0  0  0  0  0  0  0  0  0
   20.6178   18.5376   21.7414 C   0  0  0  0  0  0  0  0  0  0  0  0
   20.9073   17.8008   20.9799 H   0  0  0  0  0  0  0  0  0  0  0  0
   21.5316   19.0947   21.9860 H   0  0  0  0  0  0  0  0  0  0  0  0
   19.5675   19.4965   21.1369 C   0  0  0  0  0  0  0  0  0  0  0  0
   18.6374   18.9477   20.9350 H   0  0  0  0  0  0  0  0  0  0  0  0
   19.3231   20.2890   21.8565 H   0  0  0  0  0  0  0  0  0  0  0  0
   20.0756   20.1430   19.8323 C   0  0  0  0  0  0  0  0  0  0  0  0
   19.3203   20.8234   19.4183 H   0  0  0  0  0  0  0  0  0  0  0  0
   20.9911   20.7216   20.0121 H   0  0  0  0  0  0  0  0  0  0  0  0
   20.2955   19.3795   19.0747 H   0  0  0  0  0  0  0  0  0  0  0  0
  1  2  1  0  0  0  0
  1  3  2  0  0  0  0
  1  4  1  0  0  0  0
  4  5  1  0  0  0  0
  4  6  1  0  0  0  0
  4  7  1  0  0  0  0
  7  8  1  0  0  0  0
  7  9  1  0  0  0  0
  7 10  1  0  0  0  0
 10 11  1  0  0  0  0
 10 12  1  0  0  0  0
 10 13  1  0  0  0  0
 13 14  1  0  0  0  0
 13 15  1  0  0  0  0
 13 16  1  0  0  0  0
 16 17  1  0  0  0  0
 16 18  1  0  0  0  0
 16 19  1  0  0  0  0
 19 20  1  0  0  0  0
 19 21  1  0  0  0  0
 19 22  1  0  0  0  0
 22 23  1  0  0  0  0
 22 24  1  0  0  0  0
 22 25  1  0  0  0  0
M  END
> <VM2 Rank>
64

> <Conf_Id>
282

> <Probability>
0.08

> <Sum Probability>
98.31

> <Delta G>
3.359

> <G>
-4.603

> <E>
-29.754

> <-TS>
25.151

> <U+W>
-50.322

> <U>
9.264

> <W>
-59.585

> <W(PB)>
-62.036

> <W(SA)>
2.451

> <Valence>
8.801

> <Coulomb>
-0.375

> <VdW>
0.837

> <VdW6>
-10.171

> <VdW12>
11.008

> <Bond>
0.218

> <Angle>
3.129

> <Pdih>
5.454

> <Idih>
0.001

> <Tether>
0.000

$$$$
VeraChem MOL file


 25 24  0  0  0  0  0  0  0  0999 V2000     
   20.0503   19.8177   26.8677 C   0  0  0  0  0  0  0  0  0  0  0  0
   21.0391   20.4492   27.1849 O   0  5  0  0  0  0  0  0  0  0  0  0
   18.9395   20.3039   26.7844 O   0  0  0  0  0  0  0  0  0  0  0  0
   20.2106   18.3272   26.5817 C   0  0  0  0  0  0  0  0  0  0  0  0
   19.2256   17.8497   26.6493 H   0  0  0  0  0  0  0  0  0  0  0  0
   20.8247   17.9036   27.3851 H   0  0  0  0  0  0  0  0  0  0  0  0
   20.8641   18.0148   25.2104 C   0  0  0  0  0  0  0  0  0  0  0  0
   21.8361   18.5235   25.1460 H   0  0  0  0  0  0  0  0  0  0  0  0
   21.0666   16.9369   25.1496 H   0  0  0  0  0  0  0  0  0  0  0  0
   19.9745   18.4349   24.0188 C   0  0  0  0  0  0  0  0  0  0  0  0
   19.7819   19.5144   24.0736 H   0  0  0  0  0  0  0  0  0  0  0  0
   19.0008   17.9316   24.0914 H   0  0  0  0  0  0  0  0  0  0  0  0
   20.6352   18.0908   22.6640 C   0  0  0  0  0  0  0  0  0  0  0  0
   21.5865   18.6303   22.5679 H   0  0  0  0  0  0  0  0  0  0  0  0
   20.8891   17.0221   22.6519 H   0  0  0  0  0  0  0  0  0  0  0  0
   19.7315   18.3899   21.4413 C   0  0  0  0  0  0  0  0  0  0  0  0
   18.8279   17.7686   21.5068 H   0  0  0  0  0  0  0  0  0  0  0  0
   20.2544   18.0688   20.5303 H   0  0  0  0  0  0  0  0  0  0  0  0
   19.3069   19.8705   21.2778 C   0  0  0  0  0  0  0  0  0  0  0  0
   18.6624   19.9534   20.3919 H   0  0  0  0  0  0  0  0  0  0  0  0
   18.6909   20.1846   22.1308 H   0  0  0  0  0  0  0  0  0  0  0  0
   20.5013   20.8353   21.1149 C   0  0  0  0  0  0  0  0  0  0  0  0
   21.1100   20.8728   22.0272 H   0  0  0  0  0  0  0  0  0  0  0  0
   21.1459   20.5259   20.2820 H   0  0  0  0  0  0  0  0  0  0  0  0
   20.1474   21.8537   20.9094 H   0  0  0  0  0  0  0  0  0  0  0  0
  1  2  1  0  0  0  0
  1  3  2  0  0  0  0
  1  4  1  0  0  0  0
  4  5  1  0  0  0  0
  4  6  1  0  0  0  0
  4  7  1  0  0  0  0
  7  8  1  0  0  0  0
  7  9  1  0  0  0  0
  7 10  1  0  0  0  0
 10 11  1  0  0  0  0
 10 12  1  0  0  0  0
 10 13  1  0  0  0  0
 13 14  1  0  0  0  0
 13 15  1  0  0  0  0
 13 16  1  0  0  0  0
 16 17  1  0  0  0  0
 16 18  1  0  0  0  0
 16 19  1  0  0  0  0
 19 20  1  0  0  0  0
 19 21  1  0  0  0  0
 19 22  1  0  0  0  0
 22 23  1  0  0  0  0
 22 24  1  0  0  0  0
 22 25  1  0  0  0  0
M  END
> <VM2 Rank>
65

> <Conf_Id>
1008

> <Probability>
0.08

> <Sum Probability>
98.39

> <Delta G>
3.369

> <G>
-4.593

> <E>
-29.718

> <-TS>
25.124

> <U+W>
-50.285

> <U>
10.400

> <W>
-60.686

> <W(PB)>
-63.135

> <W(SA)>
2.449

> <Valence>
8.736

> <Coulomb>
0.892

> <VdW>
0.772

> <VdW6>
-10.164

> <VdW12>
10.936

> <Bond>
0.210

> <Angle>
3.058

> <Pdih>
5.466

> <Idih>
0.001

> <Tether>
0.000

$$$$
VeraChem MOL file


 25 24  0  0  0  0  0  0  0  0999 V2000     
   20.3849   19.6565   26.8941 C   0  0  0  0  0  0  0  0  0  0  0  0
   21.3304   20.3103   26.4998 O   0  5  0  0  0  0  0  0  0  0  0  0
   20.4222   18.9482   27.8812 O   0  0  0  0  0  0  0  0  0  0  0  0
   19.0698   19.7493   26.1254 C   0  0  0  0  0  0  0  0  0  0  0  0
   19.1169   20.6123   25.4517 H   0  0  0  0  0  0  0  0  0  0  0  0
   18.2813   19.9683   26.8547 H   0  0  0  0  0  0  0  0  0  0  0  0
   18.7006   18.4603   25.3414 C   0  0  0  0  0  0  0  0  0  0  0  0
   18.5919   17.6323   26.0556 H   0  0  0  0  0  0  0  0  0  0  0  0
   17.7161   18.5934   24.8730 H   0  0  0  0  0  0  0  0  0  0  0  0
   19.7293   18.0523   24.2582 C   0  0  0  0  0  0  0  0  0  0  0  0
   19.4115   17.0968   23.8191 H   0  0  0  0  0  0  0  0  0  0  0  0
   20.7064   17.8681   24.7256 H   0  0  0  0  0  0  0  0  0  0  0  0
   19.8829   19.0984   23.1301 C   0  0  0  0  0  0  0  0  0  0  0  0
   18.8933   19.3311   22.7163 H   0  0  0  0  0  0  0  0  0  0  0  0
   20.2905   20.0313   23.5414 H   0  0  0  0  0  0  0  0  0  0  0  0
   20.8174   18.5912   22.0074 C   0  0  0  0  0  0  0  0  0  0  0  0
   20.3922   17.6867   21.5514 H   0  0  0  0  0  0  0  0  0  0  0  0
   21.7780   18.2947   22.4505 H   0  0  0  0  0  0  0  0  0  0  0  0
   21.0877   19.6458   20.9091 C   0  0  0  0  0  0  0  0  0  0  0  0
   21.5200   20.5492   21.3610 H   0  0  0  0  0  0  0  0  0  0  0  0
   21.8464   19.2503   20.2197 H   0  0  0  0  0  0  0  0  0  0  0  0
   19.8278   20.0219   20.0993 C   0  0  0  0  0  0  0  0  0  0  0  0
   19.0840   20.5275   20.7276 H   0  0  0  0  0  0  0  0  0  0  0  0
   20.0880   20.7034   19.2791 H   0  0  0  0  0  0  0  0  0  0  0  0
   19.3608   19.1297   19.6622 H   0  0  0  0  0  0  0  0  0  0  0  0
  1  2  1  0  0  0  0
  1  3  2  0  0  0  0
  1  4  1  0  0  0  0
  4  5  1  0  0  0  0
  4  6  1  0  0  0  0
  4  7  1  0  0  0  0
  7  8  1  0  0  0  0
  7  9  1  0  0  0  0
  7 10  1  0  0  0  0
 10 11  1  0  0  0  0
 10 12  1  0  0  0  0
 10 13  1  0  0  0  0
 13 14  1  0  0  0  0
 13 15  1  0  0  0  0
 13 16  1  0  0  0  0
 16 17  1  0  0  0  0
 16 18  1  0  0  0  0
 16 19  1  0  0  0  0
 19 20  1  0  0  0  0
 19 21  1  0  0  0  0
 19 22  1  0  0  0  0
 22 23  1  0  0  0  0
 22 24  1  0  0  0  0
 22 25  1  0  0  0  0
M  END
> <VM2 Rank>
66

> <Conf_Id>
829

> <Probability>
0.07

> <Sum Probability>
98.46

> <Delta G>
3.459

> <G>
-4.503

> <E>
-29.475

> <-TS>
24.971

> <U+W>
-50.042

> <U>
10.314

> <W>
-60.357

> <W(PB)>
-62.815

> <W(SA)>
2.458

> <Valence>
8.797

> <Coulomb>
0.776

> <VdW>
0.742

> <VdW6>
-10.190

> <VdW12>
10.932

> <Bond>
0.216

> <Angle>
2.999

> <Pdih>
5.581

> <Idih>
0.001

> <Tether>
0.000

$$$$
VeraChem MOL file


 25 24  0  0  0  0  0  0  0  0999 V2000     
   19.7509   19.2500   26.9046 C   0  0  0  0  0  0  0  0  0  0  0  0
   20.4142   19.2188   27.9228 O   0  5  0  0  0  0  0  0  0  0  0  0
   18.8181   20.0100   26.7334 O   0  0  0  0  0  0  0  0  0  0  0  0
   20.0929   18.2611   25.7938 C   0  0  0  0  0  0  0  0  0  0  0  0
   19.2561   18.2234   25.0869 H   0  0  0  0  0  0  0  0  0  0  0  0
   20.1585   17.2669   26.2507 H   0  0  0  0  0  0  0  0  0  0  0  0
   21.4210   18.5750   25.0523 C   0  0  0  0  0  0  0  0  0  0  0  0
   22.2460   18.5371   25.7769 H   0  0  0  0  0  0  0  0  0  0  0  0
   21.6248   17.7801   24.3233 H   0  0  0  0  0  0  0  0  0  0  0  0
   21.4482   19.9535   24.3426 C   0  0  0  0  0  0  0  0  0  0  0  0
   22.4253   20.0810   23.8573 H   0  0  0  0  0  0  0  0  0  0  0  0
   21.3821   20.7468   25.0999 H   0  0  0  0  0  0  0  0  0  0  0  0
   20.3326   20.1790   23.2914 C   0  0  0  0  0  0  0  0  0  0  0  0
   19.3498   20.1664   23.7813 H   0  0  0  0  0  0  0  0  0  0  0  0
   20.4501   21.1885   22.8749 H   0  0  0  0  0  0  0  0  0  0  0  0
   20.3559   19.1525   22.1353 C   0  0  0  0  0  0  0  0  0  0  0  0
   20.1670   18.1447   22.5273 H   0  0  0  0  0  0  0  0  0  0  0  0
   21.3543   19.1378   21.6775 H   0  0  0  0  0  0  0  0  0  0  0  0
   19.2995   19.4811   21.0595 C   0  0  0  0  0  0  0  0  0  0  0  0
   18.3002   19.4991   21.5160 H   0  0  0  0  0  0  0  0  0  0  0  0
   19.4834   20.4856   20.6537 H   0  0  0  0  0  0  0  0  0  0  0  0
   19.3198   18.4531   19.9104 C   0  0  0  0  0  0  0  0  0  0  0  0
   19.1066   17.4428   20.2836 H   0  0  0  0  0  0  0  0  0  0  0  0
   18.5631   18.7021   19.1550 H   0  0  0  0  0  0  0  0  0  0  0  0
   20.2998   18.4361   19.4159 H   0  0  0  0  0  0  0  0  0  0  0  0
  1  2  1  0  0  0  0
  1  3  2  0  0  0  0
  1  4  1  0  0  0  0
  4  5  1  0  0  0  0
  4  6  1  0  0  0  0
  4  7  1  0  0  0  0
  7  8  1  0  0  0  0
  7  9  1  0  0  0  0
  7 10  1  0  0  0  0
 10 11  1  0  0  0  0
 10 12  1  0  0  0  0
 10 13  1  0  0  0  0
 13 14  1  0  0  0  0
 13 15  1  0  0  0  0
 13 16  1  0  0  0  0
 16 17  1  0  0  0  0
 16 18  1  0  0  0  0
 16 19  1  0  0  0  0
 19 20  1  0  0  0  0
 19 21  1  0  0  0  0
 19 22  1  0  0  0  0
 22 23  1  0  0  0  0
 22 24  1  0  0  0  0
 22 25  1  0  0  0  0
M  END
> <VM2 Rank>
67

> <Conf_Id>
401

> <Probability>
0.07

> <Sum Probability>
98.53

> <Delta G>
3.466

> <G>
-4.496

> <E>
-29.748

> <-TS>
25.252

> <U+W>
-50.316

> <U>
9.773

> <W>
-60.088

> <W(PB)>
-62.535

> <W(SA)>
2.447

> <Valence>
8.741

> <Coulomb>
0.479

> <VdW>
0.552

> <VdW6>
-10.627

> <VdW12>
11.179

> <Bond>
0.227

> <Angle>
3.155

> <Pdih>
5.358

> <Idih>
0.001

> <Tether>
0.000

$$$$
VeraChem MOL file


 25 24  0  0  0  0  0  0  0  0999 V2000     
   19.8743   19.7857   26.7464 C   0  0  0  0  0  0  0  0  0  0  0  0
   20.8599   20.3994   27.1056 O   0  5  0  0  0  0  0  0  0  0  0  0
   18.7718   20.2858   26.6404 O   0  0  0  0  0  0  0  0  0  0  0  0
   20.0225   18.2992   26.4336 C   0  0  0  0  0  0  0  0  0  0  0  0
   19.1848   17.7780   26.9117 H   0  0  0  0  0  0  0  0  0  0  0  0
   20.9392   17.9308   26.9097 H   0  0  0  0  0  0  0  0  0  0  0  0
   20.0372   17.9748   24.9174 C   0  0  0  0  0  0  0  0  0  0  0  0
   20.0116   16.8850   24.7838 H   0  0  0  0  0  0  0  0  0  0  0  0
   19.1217   18.3734   24.4601 H   0  0  0  0  0  0  0  0  0  0  0  0
   21.2833   18.5483   24.2015 C   0  0  0  0  0  0  0  0  0  0  0  0
   22.1857   18.2012   24.7229 H   0  0  0  0  0  0  0  0  0  0  0  0
   21.2904   19.6433   24.2831 H   0  0  0  0  0  0  0  0  0  0  0  0
   21.3876   18.1307   22.7131 C   0  0  0  0  0  0  0  0  0  0  0  0
   22.3129   18.5495   22.2945 H   0  0  0  0  0  0  0  0  0  0  0  0
   21.4970   17.0392   22.6570 H   0  0  0  0  0  0  0  0  0  0  0  0
   20.1961   18.5574   21.8188 C   0  0  0  0  0  0  0  0  0  0  0  0
   19.2787   18.0538   22.1504 H   0  0  0  0  0  0  0  0  0  0  0  0
   20.3858   18.2003   20.7974 H   0  0  0  0  0  0  0  0  0  0  0  0
   19.9676   20.0854   21.7819 C   0  0  0  0  0  0  0  0  0  0  0  0
   19.6944   20.4492   22.7816 H   0  0  0  0  0  0  0  0  0  0  0  0
   20.9000   20.5929   21.4990 H   0  0  0  0  0  0  0  0  0  0  0  0
   18.8528   20.4673   20.7873 C   0  0  0  0  0  0  0  0  0  0  0  0
   17.9015   19.9943   21.0642 H   0  0  0  0  0  0  0  0  0  0  0  0
   18.7003   21.5543   20.7762 H   0  0  0  0  0  0  0  0  0  0  0  0
   19.1096   20.1507   19.7679 H   0  0  0  0  0  0  0  0  0  0  0  0
  1  2  1  0  0  0  0
  1  3  2  0  0  0  0
  1  4  1  0  0  0  0
  4  5  1  0  0  0  0
  4  6  1  0  0  0  0
  4  7  1  0  0  0  0
  7  8  1  0  0  0  0
  7  9  1  0  0  0  0
  7 10  1  0  0  0  0
 10 11  1  0  0  0  0
 10 12  1  0  0  0  0
 10 13  1  0  0  0  0
 13 14  1  0  0  0  0
 13 15  1  0  0  0  0
 13 16  1  0  0  0  0
 16 17  1  0  0  0  0
 16 18  1  0  0  0  0
 16 19  1  0  0  0  0
 19 20  1  0  0  0  0
 19 21  1  0  0  0  0
 19 22  1  0  0  0  0
 22 23  1  0  0  0  0
 22 24  1  0  0  0  0
 22 25  1  0  0  0  0
M  END
> <VM2 Rank>
68

> <Conf_Id>
446

> <Probability>
0.07

> <Sum Probability>
98.60

> <Delta G>
3.471

> <G>
-4.491

> <E>
-29.651

> <-TS>
25.160

> <U+W>
-50.218

> <U>
10.375

> <W>
-60.593

> <W(PB)>
-63.000

> <W(SA)>
2.407

> <Valence>
8.732

> <Coulomb>
0.993

> <VdW>
0.650

> <VdW6>
-10.415

> <VdW12>
11.064

> <Bond>
0.214

> <Angle>
3.066

> <Pdih>
5.452

> <Idih>
0.001

> <Tether>
0.000

$$$$
VeraChem MOL file


 25 24  0  0  0  0  0  0  0  0999 V2000     
   20.3188   19.6317   26.9953 C   0  0  0  0  0  0  0  0  0  0  0  0
   21.3258   20.2592   26.7328 O   0  5  0  0  0  0  0  0  0  0  0  0
   19.4270   20.0567   27.7036 O   0  0  0  0  0  0  0  0  0  0  0  0
   20.1764   18.2218   26.4287 C   0  0  0  0  0  0  0  0  0  0  0  0
   19.9181   17.5602   27.2637 H   0  0  0  0  0  0  0  0  0  0  0  0
   21.1545   17.8898   26.0629 H   0  0  0  0  0  0  0  0  0  0  0  0
   19.0990   18.0896   25.3175 C   0  0  0  0  0  0  0  0  0  0  0  0
   19.0262   17.0380   25.0092 H   0  0  0  0  0  0  0  0  0  0  0  0
   18.1213   18.3528   25.7443 H   0  0  0  0  0  0  0  0  0  0  0  0
   19.3487   18.9709   24.0686 C   0  0  0  0  0  0  0  0  0  0  0  0
   19.3872   20.0288   24.3627 H   0  0  0  0  0  0  0  0  0  0  0  0
   18.4827   18.8662   23.4031 H   0  0  0  0  0  0  0  0  0  0  0  0
   20.6404   18.5986   23.2999 C   0  0  0  0  0  0  0  0  0  0  0  0
   21.5054   18.7256   23.9637 H   0  0  0  0  0  0  0  0  0  0  0  0
   20.6139   17.5371   23.0188 H   0  0  0  0  0  0  0  0  0  0  0  0
   20.8788   19.4636   22.0391 C   0  0  0  0  0  0  0  0  0  0  0  0
   21.8812   19.2393   21.6496 H   0  0  0  0  0  0  0  0  0  0  0  0
   20.8855   20.5261   22.3183 H   0  0  0  0  0  0  0  0  0  0  0  0
   19.8426   19.2241   20.9174 C   0  0  0  0  0  0  0  0  0  0  0  0
   19.7962   18.1527   20.6785 H   0  0  0  0  0  0  0  0  0  0  0  0
   18.8415   19.5209   21.2557 H   0  0  0  0  0  0  0  0  0  0  0  0
   20.1955   20.0178   19.6432 C   0  0  0  0  0  0  0  0  0  0  0  0
   21.1767   19.7181   19.2521 H   0  0  0  0  0  0  0  0  0  0  0  0
   19.4494   19.8401   18.8578 H   0  0  0  0  0  0  0  0  0  0  0  0
   20.2225   21.0961   19.8475 H   0  0  0  0  0  0  0  0  0  0  0  0
  1  2  1  0  0  0  0
  1  3  2  0  0  0  0
  1  4  1  0  0  0  0
  4  5  1  0  0  0  0
  4  6  1  0  0  0  0
  4  7  1  0  0  0  0
  7  8  1  0  0  0  0
  7  9  1  0  0  0  0
  7 10  1  0  0  0  0
 10 11  1  0  0  0  0
 10 12  1  0  0  0  0
 10 13  1  0  0  0  0
 13 14  1  0  0  0  0
 13 15  1  0  0  0  0
 13 16  1  0  0  0  0
 16 17  1  0  0  0  0
 16 18  1  0  0  0  0
 16 19  1  0  0  0  0
 19 20  1  0  0  0  0
 19 21  1  0  0  0  0
 19 22  1  0  0  0  0
 22 23  1  0  0  0  0
 22 24  1  0  0  0  0
 22 25  1  0  0  0  0
M  END
> <VM2 Rank>
69

> <Conf_Id>
1072

> <Probability>
0.07

> <Sum Probability>
98.67

> <Delta G>
3.492

> <G>
-4.470

> <E>
-29.368

> <-TS>
24.898

> <U+W>
-49.935

> <U>
10.274

> <W>
-60.209

> <W(PB)>
-62.630

> <W(SA)>
2.421

> <Valence>
8.912

> <Coulomb>
0.553

> <VdW>
0.809

> <VdW6>
-10.136

> <VdW12>
10.945

> <Bond>
0.229

> <Angle>
3.100

> <Pdih>
5.582

> <Idih>
0.001

> <Tether>
0.000

$$$$
VeraChem MOL file


 25 24  0  0  0  0  0  0  0  0999 V2000     
   20.3622   19.8169   26.7408 C   0  0  0  0  0  0  0  0  0  0  0  0
   21.3893   20.4534   26.6104 O   0  5  0  0  0  0  0  0  0  0  0  0
   19.3149   20.3004   27.1235 O   0  0  0  0  0  0  0  0  0  0  0  0
   20.3978   18.3233   26.4293 C   0  0  0  0  0  0  0  0  0  0  0  0
   19.5468   17.8416   26.9257 H   0  0  0  0  0  0  0  0  0  0  0  0
   21.3059   17.9138   26.8871 H   0  0  0  0  0  0  0  0  0  0  0  0
   20.3897   17.9975   24.9133 C   0  0  0  0  0  0  0  0  0  0  0  0
   21.2361   18.5089   24.4357 H   0  0  0  0  0  0  0  0  0  0  0  0
   20.5509   16.9197   24.7775 H   0  0  0  0  0  0  0  0  0  0  0  0
   19.0645   18.4063   24.2272 C   0  0  0  0  0  0  0  0  0  0  0  0
   18.9196   19.4916   24.3105 H   0  0  0  0  0  0  0  0  0  0  0  0
   18.2259   17.9478   24.7687 H   0  0  0  0  0  0  0  0  0  0  0  0
   18.9799   17.9766   22.7409 C   0  0  0  0  0  0  0  0  0  0  0  0
   19.0093   16.8799   22.6858 H   0  0  0  0  0  0  0  0  0  0  0  0
   17.9994   18.2733   22.3444 H   0  0  0  0  0  0  0  0  0  0  0  0
   20.0864   18.5504   21.8200 C   0  0  0  0  0  0  0  0  0  0  0  0
   19.9202   18.1705   20.8028 H   0  0  0  0  0  0  0  0  0  0  0  0
   21.0679   18.1683   22.1296 H   0  0  0  0  0  0  0  0  0  0  0  0
   20.1173   20.0949   21.7801 C   0  0  0  0  0  0  0  0  0  0  0  0
   19.1216   20.4791   21.5196 H   0  0  0  0  0  0  0  0  0  0  0  0
   20.3650   20.4920   22.7738 H   0  0  0  0  0  0  0  0  0  0  0  0
   21.1510   20.6143   20.7605 C   0  0  0  0  0  0  0  0  0  0  0  0
   20.9131   20.2660   19.7469 H   0  0  0  0  0  0  0  0  0  0  0  0
   21.1635   21.7119   20.7475 H   0  0  0  0  0  0  0  0  0  0  0  0
   22.1610   20.2668   21.0146 H   0  0  0  0  0  0  0  0  0  0  0  0
  1  2  1  0  0  0  0
  1  3  2  0  0  0  0
  1  4  1  0  0  0  0
  4  5  1  0  0  0  0
  4  6  1  0  0  0  0
  4  7  1  0  0  0  0
  7  8  1  0  0  0  0
  7  9  1  0  0  0  0
  7 10  1  0  0  0  0
 10 11  1  0  0  0  0
 10 12  1  0  0  0  0
 10 13  1  0  0  0  0
 13 14  1  0  0  0  0
 13 15  1  0  0  0  0
 13 16  1  0  0  0  0
 16 17  1  0  0  0  0
 16 18  1  0  0  0  0
 16 19  1  0  0  0  0
 19 20  1  0  0  0  0
 19 21  1  0  0  0  0
 19 22  1  0  0  0  0
 22 23  1  0  0  0  0
 22 24  1  0  0  0  0
 22 25  1  0  0  0  0
M  END
> <VM2 Rank>
70

> <Conf_Id>
1003

> <Probability>
0.07

> <Sum Probability>
98.74

> <Delta G>
3.506

> <G>
-4.457

> <E>
-29.616

> <-TS>
25.159

> <U+W>
-50.184

> <U>
10.374

> <W>
-60.558

> <W(PB)>
-62.973

> <W(SA)>
2.415

> <Valence>
8.733

> <Coulomb>
0.992

> <VdW>
0.650

> <VdW6>
-10.415

> <VdW12>
11.064

> <Bond>
0.214

> <Angle>
3.066

> <Pdih>
5.452

> <Idih>
0.001

> <Tether>
0.000

$$$$
VeraChem MOL file


 25 24  0  0  0  0  0  0  0  0999 V2000     
   20.5565   19.3012   26.8956 C   0  0  0  0  0  0  0  0  0  0  0  0
   21.3812   20.1732   26.7043 O   0  5  0  0  0  0  0  0  0  0  0  0
   19.9260   19.1874   27.9286 O   0  0  0  0  0  0  0  0  0  0  0  0
   20.3174   18.2755   25.7913 C   0  0  0  0  0  0  0  0  0  0  0  0
   20.3890   17.2816   26.2480 H   0  0  0  0  0  0  0  0  0  0  0  0
   21.1359   18.3433   25.0654 H   0  0  0  0  0  0  0  0  0  0  0  0
   18.9437   18.4174   25.0809 C   0  0  0  0  0  0  0  0  0  0  0  0
   18.8256   17.6020   24.3555 H   0  0  0  0  0  0  0  0  0  0  0  0
   18.1469   18.2762   25.8241 H   0  0  0  0  0  0  0  0  0  0  0  0
   18.7257   19.7803   24.3740 C   0  0  0  0  0  0  0  0  0  0  0  0
   18.7082   20.5767   25.1307 H   0  0  0  0  0  0  0  0  0  0  0  0
   17.7294   19.7823   23.9115 H   0  0  0  0  0  0  0  0  0  0  0  0
   19.7791   20.1437   23.2976 C   0  0  0  0  0  0  0  0  0  0  0  0
   19.5251   21.1297   22.8855 H   0  0  0  0  0  0  0  0  0  0  0  0
   20.7667   20.2564   23.7647 H   0  0  0  0  0  0  0  0  0  0  0  0
   19.8593   19.1209   22.1409 C   0  0  0  0  0  0  0  0  0  0  0  0
   18.8605   18.9791   21.7063 H   0  0  0  0  0  0  0  0  0  0  0  0
   20.1835   18.1457   22.5269 H   0  0  0  0  0  0  0  0  0  0  0  0
   20.8403   19.5792   21.0413 C   0  0  0  0  0  0  0  0  0  0  0  0
   20.5212   20.5517   20.6415 H   0  0  0  0  0  0  0  0  0  0  0  0
   21.8396   19.7243   21.4746 H   0  0  0  0  0  0  0  0  0  0  0  0
   20.9238   18.5552   19.8915 C   0  0  0  0  0  0  0  0  0  0  0  0
   19.9426   18.4136   19.4198 H   0  0  0  0  0  0  0  0  0  0  0  0
   21.6250   18.8969   19.1191 H   0  0  0  0  0  0  0  0  0  0  0  0
   21.2718   17.5806   20.2580 H   0  0  0  0  0  0  0  0  0  0  0  0
  1  2  1  0  0  0  0
  1  3  2  0  0  0  0
  1  4  1  0  0  0  0
  4  5  1  0  0  0  0
  4  6  1  0  0  0  0
  4  7  1  0  0  0  0
  7  8  1  0  0  0  0
  7  9  1  0  0  0  0
  7 10  1  0  0  0  0
 10 11  1  0  0  0  0
 10 12  1  0  0  0  0
 10 13  1  0  0  0  0
 13 14  1  0  0  0  0
 13 15  1  0  0  0  0
 13 16  1  0  0  0  0
 16 17  1  0  0  0  0
 16 18  1  0  0  0  0
 16 19  1  0  0  0  0
 19 20  1  0  0  0  0
 19 21  1  0  0  0  0
 19 22  1  0  0  0  0
 22 23  1  0  0  0  0
 22 24  1  0  0  0  0
 22 25  1  0  0  0  0
M  END
> <VM2 Rank>
71

> <Conf_Id>
1020

> <Probability>
0.06

> <Sum Probability>
98.80

> <Delta G>
3.530

> <G>
-4.433

> <E>
-29.684

> <-TS>
25.252

> <U+W>
-50.252

> <U>
9.772

> <W>
-60.024

> <W(PB)>
-62.442

> <W(SA)>
2.418

> <Valence>
8.741

> <Coulomb>
0.478

> <VdW>
0.552

> <VdW6>
-10.626

> <VdW12>
11.179

> <Bond>
0.227

> <Angle>
3.155

> <Pdih>
5.358

> <Idih>
0.001

> <Tether>
0.000

$$$$
VeraChem MOL file


 25 24  0  0  0  0  0  0  0  0999 V2000     
   19.9470   19.6079   26.9997 C   0  0  0  0  0  0  0  0  0  0  0  0
   20.7936   20.1440   27.6878 O   0  5  0  0  0  0  0  0  0  0  0  0
   18.8625   20.1017   26.7614 O   0  0  0  0  0  0  0  0  0  0  0  0
   20.2545   18.2268   26.4278 C   0  0  0  0  0  0  0  0  0  0  0  0
   19.3185   17.7725   26.0841 H   0  0  0  0  0  0  0  0  0  0  0  0
   20.6141   17.6047   27.2556 H   0  0  0  0  0  0  0  0  0  0  0  0
   21.3142   18.2312   25.2919 C   0  0  0  0  0  0  0  0  0  0  0  0
   22.2600   18.6172   25.6965 H   0  0  0  0  0  0  0  0  0  0  0  0
   21.5130   17.1969   24.9804 H   0  0  0  0  0  0  0  0  0  0  0  0
   20.9257   19.0717   24.0504 C   0  0  0  0  0  0  0  0  0  0  0  0
   21.7824   19.0771   23.3650 H   0  0  0  0  0  0  0  0  0  0  0  0
   20.7598   20.1165   24.3469 H   0  0  0  0  0  0  0  0  0  0  0  0
   19.6745   18.5370   23.3111 C   0  0  0  0  0  0  0  0  0  0  0  0
   19.8292   17.4871   23.0279 H   0  0  0  0  0  0  0  0  0  0  0  0
   18.8159   18.5540   23.9948 H   0  0  0  0  0  0  0  0  0  0  0  0
   19.2991   19.3629   22.0573 C   0  0  0  0  0  0  0  0  0  0  0  0
   19.1639   20.4163   22.3382 H   0  0  0  0  0  0  0  0  0  0  0  0
   18.3245   19.0124   21.6908 H   0  0  0  0  0  0  0  0  0  0  0  0
   20.3311   19.2552   20.9117 C   0  0  0  0  0  0  0  0  0  0  0  0
   21.2940   19.6774   21.2272 H   0  0  0  0  0  0  0  0  0  0  0  0
   20.5078   18.1980   20.6702 H   0  0  0  0  0  0  0  0  0  0  0  0
   19.8509   19.9956   19.6471 C   0  0  0  0  0  0  0  0  0  0  0  0
   19.6919   21.0622   19.8535 H   0  0  0  0  0  0  0  0  0  0  0  0
   20.5952   19.9130   18.8444 H   0  0  0  0  0  0  0  0  0  0  0  0
   18.9070   19.5732   19.2784 H   0  0  0  0  0  0  0  0  0  0  0  0
  1  2  1  0  0  0  0
  1  3  2  0  0  0  0
  1  4  1  0  0  0  0
  4  5  1  0  0  0  0
  4  6  1  0  0  0  0
  4  7  1  0  0  0  0
  7  8  1  0  0  0  0
  7  9  1  0  0  0  0
  7 10  1  0  0  0  0
 10 11  1  0  0  0  0
 10 12  1  0  0  0  0
 10 13  1  0  0  0  0
 13 14  1  0  0  0  0
 13 15  1  0  0  0  0
 13 16  1  0  0  0  0
 16 17  1  0  0  0  0
 16 18  1  0  0  0  0
 16 19  1  0  0  0  0
 19 20  1  0  0  0  0
 19 21  1  0  0  0  0
 19 22  1  0  0  0  0
 22 23  1  0  0  0  0
 22 24  1  0  0  0  0
 22 25  1  0  0  0  0
M  END
> <VM2 Rank>
72

> <Conf_Id>
135

> <Probability>
0.06

> <Sum Probability>
98.86

> <Delta G>
3.532

> <G>
-4.430

> <E>
-29.328

> <-TS>
24.897

> <U+W>
-49.895

> <U>
10.274

> <W>
-60.169

> <W(PB)>
-62.622

> <W(SA)>
2.453

> <Valence>
8.912

> <Coulomb>
0.553

> <VdW>
0.809

> <VdW6>
-10.136

> <VdW12>
10.945

> <Bond>
0.229

> <Angle>
3.100

> <Pdih>
5.582

> <Idih>
0.001

> <Tether>
0.000

$$$$
VeraChem MOL file


 25 24  0  0  0  0  0  0  0  0999 V2000     
   19.7023   19.5865   26.7631 C   0  0  0  0  0  0  0  0  0  0  0  0
   20.3530   19.9161   27.7354 O   0  5  0  0  0  0  0  0  0  0  0  0
   18.8540   20.2906   26.2516 O   0  0  0  0  0  0  0  0  0  0  0  0
   19.9455   18.2008   26.1718 C   0  0  0  0  0  0  0  0  0  0  0  0
   19.1187   17.9575   25.4950 H   0  0  0  0  0  0  0  0  0  0  0  0
   19.8923   17.4811   26.9970 H   0  0  0  0  0  0  0  0  0  0  0  0
   21.3111   18.0506   25.4468 C   0  0  0  0  0  0  0  0  0  0  0  0
   22.1165   18.2309   26.1722 H   0  0  0  0  0  0  0  0  0  0  0  0
   21.4276   17.0116   25.1102 H   0  0  0  0  0  0  0  0  0  0  0  0
   21.5050   19.0019   24.2404 C   0  0  0  0  0  0  0  0  0  0  0  0
   22.5242   18.8677   23.8533 H   0  0  0  0  0  0  0  0  0  0  0  0
   21.4368   20.0459   24.5761 H   0  0  0  0  0  0  0  0  0  0  0  0
   20.4940   18.7590   23.0960 C   0  0  0  0  0  0  0  0  0  0  0  0
   20.5158   17.7004   22.8040 H   0  0  0  0  0  0  0  0  0  0  0  0
   19.4799   18.9762   23.4539 H   0  0  0  0  0  0  0  0  0  0  0  0
   20.8046   19.6413   21.8647 C   0  0  0  0  0  0  0  0  0  0  0  0
   21.8444   19.4700   21.5544 H   0  0  0  0  0  0  0  0  0  0  0  0
   20.7334   20.7017   22.1432 H   0  0  0  0  0  0  0  0  0  0  0  0
   19.8801   19.3600   20.6572 C   0  0  0  0  0  0  0  0  0  0  0  0
   20.2407   19.9381   19.7952 H   0  0  0  0  0  0  0  0  0  0  0  0
   19.9530   18.3012   20.3729 H   0  0  0  0  0  0  0  0  0  0  0  0
   18.4033   19.7272   20.9189 C   0  0  0  0  0  0  0  0  0  0  0  0
   17.9644   19.0916   21.6982 H   0  0  0  0  0  0  0  0  0  0  0  0
   18.3089   20.7742   21.2351 H   0  0  0  0  0  0  0  0  0  0  0  0
   17.8070   19.5942   20.0070 H   0  0  0  0  0  0  0  0  0  0  0  0
  1  2  1  0  0  0  0
  1  3  2  0  0  0  0
  1  4  1  0  0  0  0
  4  5  1  0  0  0  0
  4  6  1  0  0  0  0
  4  7  1  0  0  0  0
  7  8  1  0  0  0  0
  7  9  1  0  0  0  0
  7 10  1  0  0  0  0
 10 11  1  0  0  0  0
 10 12  1  0  0  0  0
 10 13  1  0  0  0  0
 13 14  1  0  0  0  0
 13 15  1  0  0  0  0
 13 16  1  0  0  0  0
 16 17  1  0  0  0  0
 16 18  1  0  0  0  0
 16 19  1  0  0  0  0
 19 20  1  0  0  0  0
 19 21  1  0  0  0  0
 19 22  1  0  0  0  0
 22 23  1  0  0  0  0
 22 24  1  0  0  0  0
 22 25  1  0  0  0  0
M  END
> <VM2 Rank>
73

> <Conf_Id>
378

> <Probability>
0.06

> <Sum Probability>
98.92

> <Delta G>
3.536

> <G>
-4.426

> <E>
-29.381

> <-TS>
24.954

> <U+W>
-49.948

> <U>
10.718

> <W>
-60.666

> <W(PB)>
-63.099

> <W(SA)>
2.433

> <Valence>
8.799

> <Coulomb>
1.201

> <VdW>
0.718

> <VdW6>
-10.234

> <VdW12>
10.952

> <Bond>
0.218

> <Angle>
3.002

> <Pdih>
5.578

> <Idih>
0.001

> <Tether>
0.000

$$$$
VeraChem MOL file


 25 24  0  0  0  0  0  0  0  0999 V2000     
   20.5588   19.6410   26.7535 C   0  0  0  0  0  0  0  0  0  0  0  0
   21.2986   20.4466   26.2238 O   0  5  0  0  0  0  0  0  0  0  0  0
   19.8942   19.8864   27.7412 O   0  0  0  0  0  0  0  0  0  0  0  0
   20.4801   18.2349   26.1655 C   0  0  0  0  0  0  0  0  0  0  0  0
   20.6433   17.5288   26.9880 H   0  0  0  0  0  0  0  0  0  0  0  0
   21.3153   18.0979   25.4695 H   0  0  0  0  0  0  0  0  0  0  0  0
   19.1284   17.9115   25.4719 C   0  0  0  0  0  0  0  0  0  0  0  0
   19.1370   16.8657   25.1364 H   0  0  0  0  0  0  0  0  0  0  0  0
   18.3234   17.9891   26.2158 H   0  0  0  0  0  0  0  0  0  0  0  0
   18.7875   18.8289   24.2718 C   0  0  0  0  0  0  0  0  0  0  0  0
   18.7307   19.8736   24.6075 H   0  0  0  0  0  0  0  0  0  0  0  0
   17.7848   18.5661   23.9082 H   0  0  0  0  0  0  0  0  0  0  0  0
   19.7943   18.7145   23.1039 C   0  0  0  0  0  0  0  0  0  0  0  0
   20.7808   19.0588   23.4385 H   0  0  0  0  0  0  0  0  0  0  0  0
   19.9000   17.6613   22.8108 H   0  0  0  0  0  0  0  0  0  0  0  0
   19.3460   19.5488   21.8815 C   0  0  0  0  0  0  0  0  0  0  0  0
   19.2890   20.6100   22.1600 H   0  0  0  0  0  0  0  0  0  0  0  0
   18.3294   19.2469   21.5952 H   0  0  0  0  0  0  0  0  0  0  0  0
   20.2704   19.3851   20.6524 C   0  0  0  0  0  0  0  0  0  0  0  0
   20.3253   18.3252   20.3681 H   0  0  0  0  0  0  0  0  0  0  0  0
   19.8197   19.9119   19.8000 H   0  0  0  0  0  0  0  0  0  0  0  0
   21.6947   19.9362   20.8804 C   0  0  0  0  0  0  0  0  0  0  0  0
   22.2816   19.8787   19.9546 H   0  0  0  0  0  0  0  0  0  0  0  0
   21.6634   20.9871   21.1963 H   0  0  0  0  0  0  0  0  0  0  0  0
   22.2284   19.3621   21.6481 H   0  0  0  0  0  0  0  0  0  0  0  0
  1  2  1  0  0  0  0
  1  3  2  0  0  0  0
  1  4  1  0  0  0  0
  4  5  1  0  0  0  0
  4  6  1  0  0  0  0
  4  7  1  0  0  0  0
  7  8  1  0  0  0  0
  7  9  1  0  0  0  0
  7 10  1  0  0  0  0
 10 11  1  0  0  0  0
 10 12  1  0  0  0  0
 10 13  1  0  0  0  0
 13 14  1  0  0  0  0
 13 15  1  0  0  0  0
 13 16  1  0  0  0  0
 16 17  1  0  0  0  0
 16 18  1  0  0  0  0
 16 19  1  0  0  0  0
 19 20  1  0  0  0  0
 19 21  1  0  0  0  0
 19 22  1  0  0  0  0
 22 23  1  0  0  0  0
 22 24  1  0  0  0  0
 22 25  1  0  0  0  0
M  END
> <VM2 Rank>
74

> <Conf_Id>
670

> <Probability>
0.06

> <Sum Probability>
98.99

> <Delta G>
3.542

> <G>
-4.420

> <E>
-29.375

> <-TS>
24.955

> <U+W>
-49.943

> <U>
10.717

> <W>
-60.659

> <W(PB)>
-63.085

> <W(SA)>
2.426

> <Valence>
8.799

> <Coulomb>
1.200

> <VdW>
0.718

> <VdW6>
-10.234

> <VdW12>
10.951

> <Bond>
0.218

> <Angle>
3.002

> <Pdih>
5.579

> <Idih>
0.001

> <Tether>
0.000

$$$$
VeraChem MOL file


 25 24  0  0  0  0  0  0  0  0999 V2000     
   19.9350   19.8285   26.6998 C   0  0  0  0  0  0  0  0  0  0  0  0
   20.8078   20.3074   27.3973 O   0  5  0  0  0  0  0  0  0  0  0  0
   19.0241   20.4764   26.2228 O   0  0  0  0  0  0  0  0  0  0  0  0
   19.9707   18.3260   26.4344 C   0  0  0  0  0  0  0  0  0  0  0  0
   18.9991   18.0176   26.0319 H   0  0  0  0  0  0  0  0  0  0  0  0
   20.0775   17.8264   27.4042 H   0  0  0  0  0  0  0  0  0  0  0  0
   21.1216   17.8745   25.4941 C   0  0  0  0  0  0  0  0  0  0  0  0
   22.0816   18.1343   25.9612 H   0  0  0  0  0  0  0  0  0  0  0  0
   21.1079   16.7797   25.4080 H   0  0  0  0  0  0  0  0  0  0  0  0
   21.0710   18.4987   24.0780 C   0  0  0  0  0  0  0  0  0  0  0  0
   21.9571   18.1685   23.5190 H   0  0  0  0  0  0  0  0  0  0  0  0
   21.1447   19.5911   24.1606 H   0  0  0  0  0  0  0  0  0  0  0  0
   19.7991   18.1137   23.2839 C   0  0  0  0  0  0  0  0  0  0  0  0
   19.6676   17.0239   23.3233 H   0  0  0  0  0  0  0  0  0  0  0  0
   18.9131   18.5546   23.7600 H   0  0  0  0  0  0  0  0  0  0  0  0
   19.8463   18.5505   21.8003 C   0  0  0  0  0  0  0  0  0  0  0  0
   18.9634   18.1433   21.2891 H   0  0  0  0  0  0  0  0  0  0  0  0
   20.7224   18.1026   21.3118 H   0  0  0  0  0  0  0  0  0  0  0  0
   19.8724   20.0844   21.6129 C   0  0  0  0  0  0  0  0  0  0  0  0
   19.0262   20.5371   22.1482 H   0  0  0  0  0  0  0  0  0  0  0  0
   20.7881   20.5029   22.0510 H   0  0  0  0  0  0  0  0  0  0  0  0
   19.8049   20.4739   20.1224 C   0  0  0  0  0  0  0  0  0  0  0  0
   19.8276   21.5653   20.0065 H   0  0  0  0  0  0  0  0  0  0  0  0
   20.6560   20.0563   19.5688 H   0  0  0  0  0  0  0  0  0  0  0  0
   18.8802   20.1035   19.6606 H   0  0  0  0  0  0  0  0  0  0  0  0
  1  2  1  0  0  0  0
  1  3  2  0  0  0  0
  1  4  1  0  0  0  0
  4  5  1  0  0  0  0
  4  6  1  0  0  0  0
  4  7  1  0  0  0  0
  7  8  1  0  0  0  0
  7  9  1  0  0  0  0
  7 10  1  0  0  0  0
 10 11  1  0  0  0  0
 10 12  1  0  0  0  0
 10 13  1  0  0  0  0
 13 14  1  0  0  0  0
 13 15  1  0  0  0  0
 13 16  1  0  0  0  0
 16 17  1  0  0  0  0
 16 18  1  0  0  0  0
 16 19  1  0  0  0  0
 19 20  1  0  0  0  0
 19 21  1  0  0  0  0
 19 22  1  0  0  0  0
 22 23  1  0  0  0  0
 22 24  1  0  0  0  0
 22 25  1  0  0  0  0
M  END
> <VM2 Rank>
75

> <Conf_Id>
269

> <Probability>
0.05

> <Sum Probability>
99.04

> <Delta G>
3.665

> <G>
-4.298

> <E>
-29.296

> <-TS>
24.998

> <U+W>
-49.863

> <U>
10.631

> <W>
-60.495

> <W(PB)>
-62.928

> <W(SA)>
2.433

> <Valence>
8.788

> <Coulomb>
1.197

> <VdW>
0.647

> <VdW6>
-10.379

> <VdW12>
11.026

> <Bond>
0.219

> <Angle>
2.957

> <Pdih>
5.611

> <Idih>
0.001

> <Tether>
0.000

$$$$
VeraChem MOL file


 25 24  0  0  0  0  0  0  0  0999 V2000     
   19.9006   19.8369   26.6521 C   0  0  0  0  0  0  0  0  0  0  0  0
   20.8831   20.5047   26.9099 O   0  5  0  0  0  0  0  0  0  0  0  0
   18.8007   20.3126   26.4497 O   0  0  0  0  0  0  0  0  0  0  0  0
   20.0389   18.3157   26.6472 C   0  0  0  0  0  0  0  0  0  0  0  0
   19.0570   17.8691   26.4492 H   0  0  0  0  0  0  0  0  0  0  0  0
   20.3140   18.0282   27.6686 H   0  0  0  0  0  0  0  0  0  0  0  0
   21.0975   17.7489   25.6596 C   0  0  0  0  0  0  0  0  0  0  0  0
   22.0207   18.3421   25.7192 H   0  0  0  0  0  0  0  0  0  0  0  0
   21.3664   16.7379   25.9943 H   0  0  0  0  0  0  0  0  0  0  0  0
   20.6249   17.6484   24.1880 C   0  0  0  0  0  0  0  0  0  0  0  0
   19.7087   17.0447   24.1343 H   0  0  0  0  0  0  0  0  0  0  0  0
   21.3893   17.1003   23.6202 H   0  0  0  0  0  0  0  0  0  0  0  0
   20.3865   19.0156   23.5079 C   0  0  0  0  0  0  0  0  0  0  0  0
   19.5360   19.5234   23.9800 H   0  0  0  0  0  0  0  0  0  0  0  0
   21.2659   19.6580   23.6527 H   0  0  0  0  0  0  0  0  0  0  0  0
   20.1015   18.8606   21.9982 C   0  0  0  0  0  0  0  0  0  0  0  0
   19.2248   18.2140   21.8553 H   0  0  0  0  0  0  0  0  0  0  0  0
   20.9508   18.3603   21.5128 H   0  0  0  0  0  0  0  0  0  0  0  0
   19.8520   20.2243   21.3203 C   0  0  0  0  0  0  0  0  0  0  0  0
   19.0018   20.7270   21.8021 H   0  0  0  0  0  0  0  0  0  0  0  0
   20.7275   20.8732   21.4608 H   0  0  0  0  0  0  0  0  0  0  0  0
   19.5673   20.0663   19.8131 C   0  0  0  0  0  0  0  0  0  0  0  0
   18.6767   19.4467   19.6445 H   0  0  0  0  0  0  0  0  0  0  0  0
   19.3923   21.0450   19.3478 H   0  0  0  0  0  0  0  0  0  0  0  0
   20.4156   19.5941   19.3005 H   0  0  0  0  0  0  0  0  0  0  0  0
  1  2  1  0  0  0  0
  1  3  2  0  0  0  0
  1  4  1  0  0  0  0
  4  5  1  0  0  0  0
  4  6  1  0  0  0  0
  4  7  1  0  0  0  0
  7  8  1  0  0  0  0
  7  9  1  0  0  0  0
  7 10  1  0  0  0  0
 10 11  1  0  0  0  0
 10 12  1  0  0  0  0
 10 13  1  0  0  0  0
 13 14  1  0  0  0  0
 13 15  1  0  0  0  0
 13 16  1  0  0  0  0
 16 17  1  0  0  0  0
 16 18  1  0  0  0  0
 16 19  1  0  0  0  0
 19 20  1  0  0  0  0
 19 21  1  0  0  0  0
 19 22  1  0  0  0  0
 22 23  1  0  0  0  0
 22 24  1  0  0  0  0
 22 25  1  0  0  0  0
M  END
> <VM2 Rank>
76

> <Conf_Id>
431

> <Probability>
0.05

> <Sum Probability>
99.08

> <Delta G>
3.691

> <G>
-4.272

> <E>
-29.298

> <-TS>
25.027

> <U+W>
-49.866

> <U>
10.902

> <W>
-60.768

> <W(PB)>
-63.222

> <W(SA)>
2.454

> <Valence>
9.445

> <Coulomb>
0.778

> <VdW>
0.679

> <VdW6>
-10.007

> <VdW12>
10.686

> <Bond>
0.201

> <Angle>
3.198

> <Pdih>
6.039

> <Idih>
0.006

> <Tether>
0.000

$$$$
VeraChem MOL file


 25 24  0  0  0  0  0  0  0  0999 V2000     
   20.6377   19.6691   26.6426 C   0  0  0  0  0  0  0  0  0  0  0  0
   20.0477   20.6949   26.9205 O   0  5  0  0  0  0  0  0  0  0  0  0
   21.8298   19.6228   26.4105 O   0  0  0  0  0  0  0  0  0  0  0  0
   19.8544   18.3577   26.6496 C   0  0  0  0  0  0  0  0  0  0  0  0
   19.5072   18.2118   27.6789 H   0  0  0  0  0  0  0  0  0  0  0  0
   20.5410   17.5311   26.4299 H   0  0  0  0  0  0  0  0  0  0  0  0
   18.6309   18.3107   25.6915 C   0  0  0  0  0  0  0  0  0  0  0  0
   17.9591   17.5139   26.0383 H   0  0  0  0  0  0  0  0  0  0  0  0
   18.0573   19.2447   25.7704 H   0  0  0  0  0  0  0  0  0  0  0  0
   18.9770   18.0237   24.2093 C   0  0  0  0  0  0  0  0  0  0  0  0
   18.0370   17.8640   23.6635 H   0  0  0  0  0  0  0  0  0  0  0  0
   19.5397   17.0830   24.1364 H   0  0  0  0  0  0  0  0  0  0  0  0
   19.7674   19.1565   23.5160 C   0  0  0  0  0  0  0  0  0  0  0  0
   19.2569   20.1157   23.6788 H   0  0  0  0  0  0  0  0  0  0  0  0
   20.7652   19.2431   23.9641 H   0  0  0  0  0  0  0  0  0  0  0  0
   19.9197   18.9020   22.0005 C   0  0  0  0  0  0  0  0  0  0  0  0
   18.9259   18.8219   21.5391 H   0  0  0  0  0  0  0  0  0  0  0  0
   20.4259   17.9403   21.8396 H   0  0  0  0  0  0  0  0  0  0  0  0
   20.7187   20.0268   21.3092 C   0  0  0  0  0  0  0  0  0  0  0  0
   20.2146   20.9902   21.4677 H   0  0  0  0  0  0  0  0  0  0  0  0
   21.7143   20.1088   21.7672 H   0  0  0  0  0  0  0  0  0  0  0  0
   20.8697   19.7698   19.7964 C   0  0  0  0  0  0  0  0  0  0  0  0
   19.8882   19.7147   19.3074 H   0  0  0  0  0  0  0  0  0  0  0  0
   21.4400   20.5787   19.3215 H   0  0  0  0  0  0  0  0  0  0  0  0
   21.3994   18.8265   19.6092 H   0  0  0  0  0  0  0  0  0  0  0  0
  1  2  1  0  0  0  0
  1  3  2  0  0  0  0
  1  4  1  0  0  0  0
  4  5  1  0  0  0  0
  4  6  1  0  0  0  0
  4  7  1  0  0  0  0
  7  8  1  0  0  0  0
  7  9  1  0  0  0  0
  7 10  1  0  0  0  0
 10 11  1  0  0  0  0
 10 12  1  0  0  0  0
 10 13  1  0  0  0  0
 13 14  1  0  0  0  0
 13 15  1  0  0  0  0
 13 16  1  0  0  0  0
 16 17  1  0  0  0  0
 16 18  1  0  0  0  0
 16 19  1  0  0  0  0
 19 20  1  0  0  0  0
 19 21  1  0  0  0  0
 19 22  1  0  0  0  0
 22 23  1  0  0  0  0
 22 24  1  0  0  0  0
 22 25  1  0  0  0  0
M  END
> <VM2 Rank>
77

> <Conf_Id>
495

> <Probability>
0.05

> <Sum Probability>
99.13

> <Delta G>
3.709

> <G>
-4.253

> <E>
-29.279

> <-TS>
25.027

> <U+W>
-49.847

> <U>
10.903

> <W>
-60.750

> <W(PB)>
-63.220

> <W(SA)>
2.469

> <Valence>
9.445

> <Coulomb>
0.779

> <VdW>
0.679

> <VdW6>
-10.008

> <VdW12>
10.687

> <Bond>
0.201

> <Angle>
3.198

> <Pdih>
6.039

> <Idih>
0.006

> <Tether>
0.000

$$$$
VeraChem MOL file


 25 24  0  0  0  0  0  0  0  0999 V2000     
   20.2720   19.9683   26.9781 C   0  0  0  0  0  0  0  0  0  0  0  0
   21.2025   19.8129   27.7441 O   0  5  0  0  0  0  0  0  0  0  0  0
   19.2318   20.5164   27.2853 O   0  0  0  0  0  0  0  0  0  0  0  0
   20.4080   19.4240   25.5607 C   0  0  0  0  0  0  0  0  0  0  0  0
   21.4654   19.4767   25.2754 H   0  0  0  0  0  0  0  0  0  0  0  0
   19.8517   20.0929   24.8946 H   0  0  0  0  0  0  0  0  0  0  0  0
   19.8870   17.9711   25.4234 C   0  0  0  0  0  0  0  0  0  0  0  0
   20.3633   17.3518   26.1961 H   0  0  0  0  0  0  0  0  0  0  0  0
   18.8091   17.9524   25.6360 H   0  0  0  0  0  0  0  0  0  0  0  0
   20.1549   17.3242   24.0412 C   0  0  0  0  0  0  0  0  0  0  0  0
   19.7853   16.2904   24.0827 H   0  0  0  0  0  0  0  0  0  0  0  0
   21.2364   17.2472   23.8637 H   0  0  0  0  0  0  0  0  0  0  0  0
   19.4643   18.0363   22.8505 C   0  0  0  0  0  0  0  0  0  0  0  0
   19.1402   17.2735   22.1293 H   0  0  0  0  0  0  0  0  0  0  0  0
   18.5505   18.5416   23.1920 H   0  0  0  0  0  0  0  0  0  0  0  0
   20.3888   19.0335   22.1127 C   0  0  0  0  0  0  0  0  0  0  0  0
   21.2671   18.4983   21.7269 H   0  0  0  0  0  0  0  0  0  0  0  0
   20.7647   19.7933   22.8078 H   0  0  0  0  0  0  0  0  0  0  0  0
   19.6596   19.7294   20.9442 C   0  0  0  0  0  0  0  0  0  0  0  0
   19.2908   18.9751   20.2354 H   0  0  0  0  0  0  0  0  0  0  0  0
   18.7802   20.2671   21.3248 H   0  0  0  0  0  0  0  0  0  0  0  0
   20.5841   20.7180   20.2056 C   0  0  0  0  0  0  0  0  0  0  0  0
   21.4580   20.2012   19.7876 H   0  0  0  0  0  0  0  0  0  0  0  0
   20.0497   21.2034   19.3787 H   0  0  0  0  0  0  0  0  0  0  0  0
   20.9424   21.5029   20.8847 H   0  0  0  0  0  0  0  0  0  0  0  0
  1  2  1  0  0  0  0
  1  3  2  0  0  0  0
  1  4  1  0  0  0  0
  4  5  1  0  0  0  0
  4  6  1  0  0  0  0
  4  7  1  0  0  0  0
  7  8  1  0  0  0  0
  7  9  1  0  0  0  0
  7 10  1  0  0  0  0
 10 11  1  0  0  0  0
 10 12  1  0  0  0  0
 10 13  1  0  0  0  0
 13 14  1  0  0  0  0
 13 15  1  0  0  0  0
 13 16  1  0  0  0  0
 16 17  1  0  0  0  0
 16 18  1  0  0  0  0
 16 19  1  0  0  0  0
 19 20  1  0  0  0  0
 19 21  1  0  0  0  0
 19 22  1  0  0  0  0
 22 23  1  0  0  0  0
 22 24  1  0  0  0  0
 22 25  1  0  0  0  0
M  END
> <VM2 Rank>
78

> <Conf_Id>
936

> <Probability>
0.05

> <Sum Probability>
99.18

> <Delta G>
3.723

> <G>
-4.240

> <E>
-29.021

> <-TS>
24.782

> <U+W>
-49.589

> <U>
10.016

> <W>
-59.605

> <W(PB)>
-62.067

> <W(SA)>
2.462

> <Valence>
10.523

> <Coulomb>
-1.441

> <VdW>
0.934

> <VdW6>
-9.399

> <VdW12>
10.333

> <Bond>
0.199

> <Angle>
2.988

> <Pdih>
7.335

> <Idih>
0.001

> <Tether>
0.000

$$$$
VeraChem MOL file


 25 24  0  0  0  0  0  0  0  0999 V2000     
   20.3930   19.4813   27.1365 C   0  0  0  0  0  0  0  0  0  0  0  0
   21.4290   20.1160   27.1622 O   0  5  0  0  0  0  0  0  0  0  0  0
   20.0018   18.7939   28.0592 O   0  0  0  0  0  0  0  0  0  0  0  0
   19.5473   19.5337   25.8693 C   0  0  0  0  0  0  0  0  0  0  0  0
   19.6716   20.5283   25.4263 H   0  0  0  0  0  0  0  0  0  0  0  0
   18.4941   19.4345   26.1577 H   0  0  0  0  0  0  0  0  0  0  0  0
   19.9286   18.4312   24.8478 C   0  0  0  0  0  0  0  0  0  0  0  0
   20.9763   18.5583   24.5446 H   0  0  0  0  0  0  0  0  0  0  0  0
   19.8728   17.4537   25.3461 H   0  0  0  0  0  0  0  0  0  0  0  0
   19.0120   18.4020   23.5989 C   0  0  0  0  0  0  0  0  0  0  0  0
   17.9844   18.1816   23.9179 H   0  0  0  0  0  0  0  0  0  0  0  0
   19.3108   17.5619   22.9582 H   0  0  0  0  0  0  0  0  0  0  0  0
   19.0011   19.7061   22.7586 C   0  0  0  0  0  0  0  0  0  0  0  0
   18.3284   19.5679   21.9022 H   0  0  0  0  0  0  0  0  0  0  0  0
   18.5535   20.5147   23.3508 H   0  0  0  0  0  0  0  0  0  0  0  0
   20.3895   20.1728   22.2471 C   0  0  0  0  0  0  0  0  0  0  0  0
   21.0172   20.4498   23.1043 H   0  0  0  0  0  0  0  0  0  0  0  0
   20.2569   21.0952   21.6657 H   0  0  0  0  0  0  0  0  0  0  0  0
   21.1516   19.1411   21.3793 C   0  0  0  0  0  0  0  0  0  0  0  0
   22.1276   19.5656   21.1070 H   0  0  0  0  0  0  0  0  0  0  0  0
   21.3657   18.2382   21.9663 H   0  0  0  0  0  0  0  0  0  0  0  0
   20.3992   18.7559   20.0872 C   0  0  0  0  0  0  0  0  0  0  0  0
   20.1582   19.6466   19.4926 H   0  0  0  0  0  0  0  0  0  0  0  0
   21.0150   18.0914   19.4675 H   0  0  0  0  0  0  0  0  0  0  0  0
   19.4639   18.2285   20.3129 H   0  0  0  0  0  0  0  0  0  0  0  0
  1  2  1  0  0  0  0
  1  3  2  0  0  0  0
  1  4  1  0  0  0  0
  4  5  1  0  0  0  0
  4  6  1  0  0  0  0
  4  7  1  0  0  0  0
  7  8  1  0  0  0  0
  7  9  1  0  0  0  0
  7 10  1  0  0  0  0
 10 11  1  0  0  0  0
 10 12  1  0  0  0  0
 10 13  1  0  0  0  0
 13 14  1  0  0  0  0
 13 15  1  0  0  0  0
 13 16  1  0  0  0  0
 16 17  1  0  0  0  0
 16 18  1  0  0  0  0
 16 19  1  0  0  0  0
 19 20  1  0  0  0  0
 19 21  1  0  0  0  0
 19 22  1  0  0  0  0
 22 23  1  0  0  0  0
 22 24  1  0  0  0  0
 22 25  1  0  0  0  0
M  END
> <VM2 Rank>
79

> <Conf_Id>
500

> <Probability>
0.04

> <Sum Probability>
99.22

> <Delta G>
3.736

> <G>
-4.226

> <E>
-29.677

> <-TS>
25.450

> <U+W>
-50.244

> <U>
9.324

> <W>
-59.568

> <W(PB)>
-61.965

> <W(SA)>
2.397

> <Valence>
9.360

> <Coulomb>
-0.854

> <VdW>
0.818

> <VdW6>
-11.207

> <VdW12>
12.025

> <Bond>
0.279

> <Angle>
3.545

> <Pdih>
5.535

> <Idih>
0.001

> <Tether>
0.000

$$$$
VeraChem MOL file


 25 24  0  0  0  0  0  0  0  0999 V2000     
   19.7543   18.8237   27.0174 C   0  0  0  0  0  0  0  0  0  0  0  0
   20.5055   18.2718   27.7970 O   0  5  0  0  0  0  0  0  0  0  0  0
   18.6634   19.2597   27.3282 O   0  0  0  0  0  0  0  0  0  0  0  0
   20.2161   18.9997   25.5753 C   0  0  0  0  0  0  0  0  0  0  0  0
   19.3296   18.9385   24.9342 H   0  0  0  0  0  0  0  0  0  0  0  0
   20.8678   18.1555   25.3207 H   0  0  0  0  0  0  0  0  0  0  0  0
   20.9583   20.3399   25.3423 C   0  0  0  0  0  0  0  0  0  0  0  0
   20.2656   21.1729   25.5257 H   0  0  0  0  0  0  0  0  0  0  0  0
   21.7573   20.4345   26.0907 H   0  0  0  0  0  0  0  0  0  0  0  0
   21.5853   20.4864   23.9330 C   0  0  0  0  0  0  0  0  0  0  0  0
   22.3529   19.7157   23.7793 H   0  0  0  0  0  0  0  0  0  0  0  0
   22.1177   21.4470   23.9063 H   0  0  0  0  0  0  0  0  0  0  0  0
   20.5642   20.4680   22.7672 C   0  0  0  0  0  0  0  0  0  0  0  0
   19.5902   20.8402   23.1132 H   0  0  0  0  0  0  0  0  0  0  0  0
   20.9041   21.1725   21.9958 H   0  0  0  0  0  0  0  0  0  0  0  0
   20.4077   19.0756   22.1113 C   0  0  0  0  0  0  0  0  0  0  0  0
   20.1036   18.3326   22.8579 H   0  0  0  0  0  0  0  0  0  0  0  0
   21.3796   18.7469   21.7186 H   0  0  0  0  0  0  0  0  0  0  0  0
   19.3742   19.0980   20.9657 C   0  0  0  0  0  0  0  0  0  0  0  0
   18.3995   19.4255   21.3532 H   0  0  0  0  0  0  0  0  0  0  0  0
   19.6785   19.8312   20.2059 H   0  0  0  0  0  0  0  0  0  0  0  0
   19.2240   17.7112   20.3085 C   0  0  0  0  0  0  0  0  0  0  0  0
   18.8889   16.9642   21.0400 H   0  0  0  0  0  0  0  0  0  0  0  0
   18.4858   17.7455   19.4968 H   0  0  0  0  0  0  0  0  0  0  0  0
   20.1783   17.3720   19.8847 H   0  0  0  0  0  0  0  0  0  0  0  0
  1  2  1  0  0  0  0
  1  3  2  0  0  0  0
  1  4  1  0  0  0  0
  4  5  1  0  0  0  0
  4  6  1  0  0  0  0
  4  7  1  0  0  0  0
  7  8  1  0  0  0  0
  7  9  1  0  0  0  0
  7 10  1  0  0  0  0
 10 11  1  0  0  0  0
 10 12  1  0  0  0  0
 10 13  1  0  0  0  0
 13 14  1  0  0  0  0
 13 15  1  0  0  0  0
 13 16  1  0  0  0  0
 16 17  1  0  0  0  0
 16 18  1  0  0  0  0
 16 19  1  0  0  0  0
 19 20  1  0  0  0  0
 19 21  1  0  0  0  0
 19 22  1  0  0  0  0
 22 23  1  0  0  0  0
 22 24  1  0  0  0  0
 22 25  1  0  0  0  0
M  END
> <VM2 Rank>
80

> <Conf_Id>
614

> <Probability>
0.04

> <Sum Probability>
99.26

> <Delta G>
3.762

> <G>
-4.200

> <E>
-28.981

> <-TS>
24.781

> <U+W>
-49.549

> <U>
10.016

> <W>
-59.565

> <W(PB)>
-62.019

> <W(SA)>
2.454

> <Valence>
10.523

> <Coulomb>
-1.441

> <VdW>
0.934

> <VdW6>
-9.398

> <VdW12>
10.333

> <Bond>
0.199

> <Angle>
2.988

> <Pdih>
7.334

> <Idih>
0.001

> <Tether>
0.000

$$$$
VeraChem MOL file


 25 24  0  0  0  0  0  0  0  0999 V2000     
   20.3699   19.5170   27.1354 C   0  0  0  0  0  0  0  0  0  0  0  0
   21.3722   20.2037   27.1598 O   0  5  0  0  0  0  0  0  0  0  0  0
   19.5592   19.4772   28.0399 O   0  0  0  0  0  0  0  0  0  0  0  0
   20.1042   18.6738   25.8935 C   0  0  0  0  0  0  0  0  0  0  0  0
   19.5752   17.7653   26.2048 H   0  0  0  0  0  0  0  0  0  0  0  0
   21.0736   18.3636   25.4874 H   0  0  0  0  0  0  0  0  0  0  0  0
   19.2812   19.4310   24.8194 C   0  0  0  0  0  0  0  0  0  0  0  0
   18.3540   19.7991   25.2797 H   0  0  0  0  0  0  0  0  0  0  0  0
   19.8339   20.3225   24.4946 H   0  0  0  0  0  0  0  0  0  0  0  0
   18.9115   18.5573   23.5944 C   0  0  0  0  0  0  0  0  0  0  0  0
   18.2842   19.1473   22.9133 H   0  0  0  0  0  0  0  0  0  0  0  0
   18.2815   17.7228   23.9308 H   0  0  0  0  0  0  0  0  0  0  0  0
   20.1180   17.9813   22.8074 C   0  0  0  0  0  0  0  0  0  0  0  0
   20.6569   17.2665   23.4427 H   0  0  0  0  0  0  0  0  0  0  0  0
   19.7386   17.3901   21.9638 H   0  0  0  0  0  0  0  0  0  0  0  0
   21.1253   19.0365   22.2792 C   0  0  0  0  0  0  0  0  0  0  0  0
   21.9272   18.5158   21.7386 H   0  0  0  0  0  0  0  0  0  0  0  0
   21.6129   19.5300   23.1303 H   0  0  0  0  0  0  0  0  0  0  0  0
   20.5189   20.1183   21.3517 C   0  0  0  0  0  0  0  0  0  0  0  0
   19.7681   20.7057   21.8966 H   0  0  0  0  0  0  0  0  0  0  0  0
   21.3126   20.8241   21.0714 H   0  0  0  0  0  0  0  0  0  0  0  0
   19.8926   19.5380   20.0652 C   0  0  0  0  0  0  0  0  0  0  0  0
   19.0229   18.9094   20.2938 H   0  0  0  0  0  0  0  0  0  0  0  0
   19.5547   20.3462   19.4039 H   0  0  0  0  0  0  0  0  0  0  0  0
   20.6214   18.9307   19.5129 H   0  0  0  0  0  0  0  0  0  0  0  0
  1  2  1  0  0  0  0
  1  3  2  0  0  0  0
  1  4  1  0  0  0  0
  4  5  1  0  0  0  0
  4  6  1  0  0  0  0
  4  7  1  0  0  0  0
  7  8  1  0  0  0  0
  7  9  1  0  0  0  0
  7 10  1  0  0  0  0
 10 11  1  0  0  0  0
 10 12  1  0  0  0  0
 10 13  1  0  0  0  0
 13 14  1  0  0  0  0
 13 15  1  0  0  0  0
 13 16  1  0  0  0  0
 16 17  1  0  0  0  0
 16 18  1  0  0  0  0
 16 19  1  0  0  0  0
 19 20  1  0  0  0  0
 19 21  1  0  0  0  0
 19 22  1  0  0  0  0
 22 23  1  0  0  0  0
 22 24  1  0  0  0  0
 22 25  1  0  0  0  0
M  END
> <VM2 Rank>
81

> <Conf_Id>
721

> <Probability>
0.04

> <Sum Probability>
99.31

> <Delta G>
3.780

> <G>
-4.182

> <E>
-29.632

> <-TS>
25.451

> <U+W>
-50.200

> <U>
9.324

> <W>
-59.524

> <W(PB)>
-61.904

> <W(SA)>
2.381

> <Valence>
9.360

> <Coulomb>
-0.855

> <VdW>
0.819

> <VdW6>
-11.207

> <VdW12>
12.026

> <Bond>
0.279

> <Angle>
3.545

> <Pdih>
5.535

> <Idih>
0.001

> <Tether>
0.000

$$$$
VeraChem MOL file


 25 24  0  0  0  0  0  0  0  0999 V2000     
   19.5514   19.1587   26.9670 C   0  0  0  0  0  0  0  0  0  0  0  0
   20.0435   19.0196   28.0694 O   0  5  0  0  0  0  0  0  0  0  0  0
   18.4654   19.6686   26.7739 O   0  0  0  0  0  0  0  0  0  0  0  0
   20.3505   18.6868   25.7578 C   0  0  0  0  0  0  0  0  0  0  0  0
   19.6396   18.3476   24.9980 H   0  0  0  0  0  0  0  0  0  0  0  0
   20.9359   17.8105   26.0606 H   0  0  0  0  0  0  0  0  0  0  0  0
   21.2908   19.7852   25.1945 C   0  0  0  0  0  0  0  0  0  0  0  0
   20.7150   20.6893   24.9528 H   0  0  0  0  0  0  0  0  0  0  0  0
   21.9900   20.0728   25.9920 H   0  0  0  0  0  0  0  0  0  0  0  0
   22.1078   19.3234   23.9611 C   0  0  0  0  0  0  0  0  0  0  0  0
   22.2829   18.2397   24.0042 H   0  0  0  0  0  0  0  0  0  0  0  0
   23.1017   19.7884   24.0158 H   0  0  0  0  0  0  0  0  0  0  0  0
   21.4886   19.7081   22.5939 C   0  0  0  0  0  0  0  0  0  0  0  0
   21.4113   20.8016   22.5233 H   0  0  0  0  0  0  0  0  0  0  0  0
   22.1836   19.3970   21.8021 H   0  0  0  0  0  0  0  0  0  0  0  0
   20.1041   19.0783   22.3221 C   0  0  0  0  0  0  0  0  0  0  0  0
   19.3700   19.4810   23.0320 H   0  0  0  0  0  0  0  0  0  0  0  0
   20.1545   17.9930   22.4842 H   0  0  0  0  0  0  0  0  0  0  0  0
   19.6188   19.3629   20.8851 C   0  0  0  0  0  0  0  0  0  0  0  0
   19.5711   20.4480   20.7188 H   0  0  0  0  0  0  0  0  0  0  0  0
   20.3419   18.9603   20.1624 H   0  0  0  0  0  0  0  0  0  0  0  0
   18.2321   18.7424   20.6211 C   0  0  0  0  0  0  0  0  0  0  0  0
   18.2585   17.6525   20.7504 H   0  0  0  0  0  0  0  0  0  0  0  0
   17.4814   19.1512   21.3101 H   0  0  0  0  0  0  0  0  0  0  0  0
   17.9021   18.9542   19.5958 H   0  0  0  0  0  0  0  0  0  0  0  0
  1  2  1  0  0  0  0
  1  3  2  0  0  0  0
  1  4  1  0  0  0  0
  4  5  1  0  0  0  0
  4  6  1  0  0  0  0
  4  7  1  0  0  0  0
  7  8  1  0  0  0  0
  7  9  1  0  0  0  0
  7 10  1  0  0  0  0
 10 11  1  0  0  0  0
 10 12  1  0  0  0  0
 10 13  1  0  0  0  0
 13 14  1  0  0  0  0
 13 15  1  0  0  0  0
 13 16  1  0  0  0  0
 16 17  1  0  0  0  0
 16 18  1  0  0  0  0
 16 19  1  0  0  0  0
 19 20  1  0  0  0  0
 19 21  1  0  0  0  0
 19 22  1  0  0  0  0
 22 23  1  0  0  0  0
 22 24  1  0  0  0  0
 22 25  1  0  0  0  0
M  END
> <VM2 Rank>
82

> <Conf_Id>
1113

> <Probability>
0.04

> <Sum Probability>
99.34

> <Delta G>
3.841

> <G>
-4.121

> <E>
-28.910

> <-TS>
24.789

> <U+W>
-49.478

> <U>
10.344

> <W>
-59.822

> <W(PB)>
-62.262

> <W(SA)>
2.440

> <Valence>
10.527

> <Coulomb>
-1.066

> <VdW>
0.884

> <VdW6>
-9.456

> <VdW12>
10.339

> <Bond>
0.207

> <Angle>
3.009

> <Pdih>
7.309

> <Idih>
0.001

> <Tether>
0.000

$$$$
VeraChem MOL file


 25 24  0  0  0  0  0  0  0  0999 V2000     
   20.7674   19.2360   26.9531 C   0  0  0  0  0  0  0  0  0  0  0  0
   21.7752   19.8792   26.7361 O   0  5  0  0  0  0  0  0  0  0  0  0
   20.3223   19.0368   28.0663 O   0  0  0  0  0  0  0  0  0  0  0  0
   20.0070   18.6651   25.7617 C   0  0  0  0  0  0  0  0  0  0  0  0
   19.5444   17.7220   26.0763 H   0  0  0  0  0  0  0  0  0  0  0  0
   20.7376   18.4177   24.9853 H   0  0  0  0  0  0  0  0  0  0  0  0
   18.9226   19.6348   25.2219 C   0  0  0  0  0  0  0  0  0  0  0  0
   18.2112   19.8327   26.0357 H   0  0  0  0  0  0  0  0  0  0  0  0
   19.3736   20.6042   24.9684 H   0  0  0  0  0  0  0  0  0  0  0  0
   18.1424   19.0716   24.0069 C   0  0  0  0  0  0  0  0  0  0  0  0
   17.0992   19.4071   24.0851 H   0  0  0  0  0  0  0  0  0  0  0  0
   18.1069   17.9745   24.0524 H   0  0  0  0  0  0  0  0  0  0  0  0
   18.6763   19.5295   22.6264 C   0  0  0  0  0  0  0  0  0  0  0  0
   18.0081   19.1318   21.8503 H   0  0  0  0  0  0  0  0  0  0  0  0
   18.6130   20.6239   22.5556 H   0  0  0  0  0  0  0  0  0  0  0  0
   20.1226   19.0795   22.3218 C   0  0  0  0  0  0  0  0  0  0  0  0
   20.2137   17.9968   22.4835 H   0  0  0  0  0  0  0  0  0  0  0  0
   20.8161   19.5729   23.0151 H   0  0  0  0  0  0  0  0  0  0  0  0
   20.5348   19.4211   20.8743 C   0  0  0  0  0  0  0  0  0  0  0  0
   19.8518   18.9291   20.1680 H   0  0  0  0  0  0  0  0  0  0  0  0
   20.4409   20.5033   20.7085 H   0  0  0  0  0  0  0  0  0  0  0  0
   21.9824   18.9806   20.5775 C   0  0  0  0  0  0  0  0  0  0  0  0
   22.6910   19.4821   21.2496 H   0  0  0  0  0  0  0  0  0  0  0  0
   22.0970   17.8963   20.7058 H   0  0  0  0  0  0  0  0  0  0  0  0
   22.2591   19.2310   19.5451 H   0  0  0  0  0  0  0  0  0  0  0  0
  1  2  1  0  0  0  0
  1  3  2  0  0  0  0
  1  4  1  0  0  0  0
  4  5  1  0  0  0  0
  4  6  1  0  0  0  0
  4  7  1  0  0  0  0
  7  8  1  0  0  0  0
  7  9  1  0  0  0  0
  7 10  1  0  0  0  0
 10 11  1  0  0  0  0
 10 12  1  0  0  0  0
 10 13  1  0  0  0  0
 13 14  1  0  0  0  0
 13 15  1  0  0  0  0
 13 16  1  0  0  0  0
 16 17  1  0  0  0  0
 16 18  1  0  0  0  0
 16 19  1  0  0  0  0
 19 20  1  0  0  0  0
 19 21  1  0  0  0  0
 19 22  1  0  0  0  0
 22 23  1  0  0  0  0
 22 24  1  0  0  0  0
 22 25  1  0  0  0  0
M  END
> <VM2 Rank>
83

> <Conf_Id>
1088

> <Probability>
0.04

> <Sum Probability>
99.38

> <Delta G>
3.858

> <G>
-4.104

> <E>
-28.893

> <-TS>
24.789

> <U+W>
-49.460

> <U>
10.344

> <W>
-59.804

> <W(PB)>
-62.244

> <W(SA)>
2.440

> <Valence>
10.527

> <Coulomb>
-1.067

> <VdW>
0.883

> <VdW6>
-9.455

> <VdW12>
10.339

> <Bond>
0.207

> <Angle>
3.010

> <Pdih>
7.309

> <Idih>
0.001

> <Tether>
0.000

$$$$
VeraChem MOL file


 25 24  0  0  0  0  0  0  0  0999 V2000     
   20.3482   19.8220   27.0877 C   0  0  0  0  0  0  0  0  0  0  0  0
   21.4744   20.2661   27.1937 O   0  5  0  0  0  0  0  0  0  0  0  0
   19.3698   20.3411   27.5875 O   0  0  0  0  0  0  0  0  0  0  0  0
   20.1492   18.5528   26.2669 C   0  0  0  0  0  0  0  0  0  0  0  0
   19.3199   17.9880   26.7094 H   0  0  0  0  0  0  0  0  0  0  0  0
   21.0512   17.9371   26.3669 H   0  0  0  0  0  0  0  0  0  0  0  0
   19.8631   18.8425   24.7728 C   0  0  0  0  0  0  0  0  0  0  0  0
   18.9615   19.4649   24.6895 H   0  0  0  0  0  0  0  0  0  0  0  0
   20.6986   19.4232   24.3602 H   0  0  0  0  0  0  0  0  0  0  0  0
   19.6777   17.5414   23.9606 C   0  0  0  0  0  0  0  0  0  0  0  0
   18.9237   16.9151   24.4569 H   0  0  0  0  0  0  0  0  0  0  0  0
   20.6135   16.9661   23.9744 H   0  0  0  0  0  0  0  0  0  0  0  0
   19.2332   17.7650   22.4933 C   0  0  0  0  0  0  0  0  0  0  0  0
   19.0852   16.7759   22.0388 H   0  0  0  0  0  0  0  0  0  0  0  0
   18.2502   18.2547   22.4676 H   0  0  0  0  0  0  0  0  0  0  0  0
   20.2474   18.5488   21.6218 C   0  0  0  0  0  0  0  0  0  0  0  0
   20.2357   18.1253   20.6081 H   0  0  0  0  0  0  0  0  0  0  0  0
   21.2669   18.4000   22.0031 H   0  0  0  0  0  0  0  0  0  0  0  0
   19.9267   20.0578   21.5159 C   0  0  0  0  0  0  0  0  0  0  0  0
   18.9269   20.1912   21.0804 H   0  0  0  0  0  0  0  0  0  0  0  0
   19.8990   20.5173   22.5113 H   0  0  0  0  0  0  0  0  0  0  0  0
   20.9634   20.7966   20.6458 C   0  0  0  0  0  0  0  0  0  0  0  0
   20.9870   20.3856   19.6280 H   0  0  0  0  0  0  0  0  0  0  0  0
   20.7181   21.8642   20.5746 H   0  0  0  0  0  0  0  0  0  0  0  0
   21.9699   20.7081   21.0750 H   0  0  0  0  0  0  0  0  0  0  0  0
  1  2  1  0  0  0  0
  1  3  2  0  0  0  0
  1  4  1  0  0  0  0
  4  5  1  0  0  0  0
  4  6  1  0  0  0  0
  4  7  1  0  0  0  0
  7  8  1  0  0  0  0
  7  9  1  0  0  0  0
  7 10  1  0  0  0  0
 10 11  1  0  0  0  0
 10 12  1  0  0  0  0
 10 13  1  0  0  0  0
 13 14  1  0  0  0  0
 13 15  1  0  0  0  0
 13 16  1  0  0  0  0
 16 17  1  0  0  0  0
 16 18  1  0  0  0  0
 16 19  1  0  0  0  0
 19 20  1  0  0  0  0
 19 21  1  0  0  0  0
 19 22  1  0  0  0  0
 22 23  1  0  0  0  0
 22 24  1  0  0  0  0
 22 25  1  0  0  0  0
M  END
> <VM2 Rank>
84

> <Conf_Id>
273

> <Probability>
0.04

> <Sum Probability>
99.42

> <Delta G>
3.862

> <G>
-4.100

> <E>
-28.882

> <-TS>
24.782

> <U+W>
-49.449

> <U>
10.480

> <W>
-59.930

> <W(PB)>
-62.373

> <W(SA)>
2.443

> <Valence>
10.552

> <Coulomb>
-0.995

> <VdW>
0.923

> <VdW6>
-9.371

> <VdW12>
10.294

> <Bond>
0.194

> <Angle>
2.991

> <Pdih>
7.366

> <Idih>
0.001

> <Tether>
0.000

$$$$
VeraChem MOL file


 25 24  0  0  0  0  0  0  0  0999 V2000     
   19.7425   19.6047   27.1883 C   0  0  0  0  0  0  0  0  0  0  0  0
   20.5884   19.9590   27.9856 O   0  5  0  0  0  0  0  0  0  0  0  0
   18.6154   20.0575   27.1565 O   0  0  0  0  0  0  0  0  0  0  0  0
   20.1230   18.5477   26.1577 C   0  0  0  0  0  0  0  0  0  0  0  0
   19.2273   17.9581   25.9281 H   0  0  0  0  0  0  0  0  0  0  0  0
   20.8497   17.8681   26.6188 H   0  0  0  0  0  0  0  0  0  0  0  0
   20.7080   19.1568   24.8598 C   0  0  0  0  0  0  0  0  0  0  0  0
   19.9764   19.8511   24.4291 H   0  0  0  0  0  0  0  0  0  0  0  0
   21.5965   19.7529   25.1099 H   0  0  0  0  0  0  0  0  0  0  0  0
   21.0903   18.0632   23.8344 C   0  0  0  0  0  0  0  0  0  0  0  0
   20.2257   17.4204   23.6195 H   0  0  0  0  0  0  0  0  0  0  0  0
   21.8479   17.4135   24.2937 H   0  0  0  0  0  0  0  0  0  0  0  0
   21.6682   18.6353   22.5152 C   0  0  0  0  0  0  0  0  0  0  0  0
   22.1605   19.5997   22.7010 H   0  0  0  0  0  0  0  0  0  0  0  0
   22.4607   17.9585   22.1675 H   0  0  0  0  0  0  0  0  0  0  0  0
   20.6393   18.7764   21.3652 C   0  0  0  0  0  0  0  0  0  0  0  0
   20.2236   17.7885   21.1243 H   0  0  0  0  0  0  0  0  0  0  0  0
   21.1725   19.1135   20.4658 H   0  0  0  0  0  0  0  0  0  0  0  0
   19.4855   19.7593   21.6610 C   0  0  0  0  0  0  0  0  0  0  0  0
   18.8672   19.3721   22.4814 H   0  0  0  0  0  0  0  0  0  0  0  0
   19.8944   20.7249   21.9888 H   0  0  0  0  0  0  0  0  0  0  0  0
   18.5924   19.9739   20.4223 C   0  0  0  0  0  0  0  0  0  0  0  0
   18.1503   19.0261   20.0883 H   0  0  0  0  0  0  0  0  0  0  0  0
   17.7733   20.6678   20.6519 H   0  0  0  0  0  0  0  0  0  0  0  0
   19.1698   20.3957   19.5892 H   0  0  0  0  0  0  0  0  0  0  0  0
  1  2  1  0  0  0  0
  1  3  2  0  0  0  0
  1  4  1  0  0  0  0
  4  5  1  0  0  0  0
  4  6  1  0  0  0  0
  4  7  1  0  0  0  0
  7  8  1  0  0  0  0
  7  9  1  0  0  0  0
  7 10  1  0  0  0  0
 10 11  1  0  0  0  0
 10 12  1  0  0  0  0
 10 13  1  0  0  0  0
 13 14  1  0  0  0  0
 13 15  1  0  0  0  0
 13 16  1  0  0  0  0
 16 17  1  0  0  0  0
 16 18  1  0  0  0  0
 16 19  1  0  0  0  0
 19 20  1  0  0  0  0
 19 21  1  0  0  0  0
 19 22  1  0  0  0  0
 22 23  1  0  0  0  0
 22 24  1  0  0  0  0
 22 25  1  0  0  0  0
M  END
> <VM2 Rank>
85

> <Conf_Id>
988

> <Probability>
0.03

> <Sum Probability>
99.45

> <Delta G>
3.906

> <G>
-4.056

> <E>
-28.830

> <-TS>
24.775

> <U+W>
-49.398

> <U>
10.175

> <W>
-59.573

> <W(PB)>
-62.030

> <W(SA)>
2.457

> <Valence>
10.554

> <Coulomb>
-1.316

> <VdW>
0.937

> <VdW6>
-9.356

> <VdW12>
10.292

> <Bond>
0.194

> <Angle>
2.996

> <Pdih>
7.363

> <Idih>
0.001

> <Tether>
0.000

$$$$
VeraChem MOL file


 25 24  0  0  0  0  0  0  0  0999 V2000     
   20.0360   19.0481   27.5084 C   0  0  0  0  0  0  0  0  0  0  0  0
   21.0803   19.1184   28.1257 O   0  5  0  0  0  0  0  0  0  0  0  0
   18.9543   19.3385   27.9799 O   0  0  0  0  0  0  0  0  0  0  0  0
   20.0883   18.5908   26.0551 C   0  0  0  0  0  0  0  0  0  0  0  0
   19.1585   18.0533   25.8334 H   0  0  0  0  0  0  0  0  0  0  0  0
   20.9104   17.8721   25.9534 H   0  0  0  0  0  0  0  0  0  0  0  0
   20.2778   19.7635   25.0618 C   0  0  0  0  0  0  0  0  0  0  0  0
   19.4539   20.4803   25.1847 H   0  0  0  0  0  0  0  0  0  0  0  0
   21.2059   20.2989   25.3058 H   0  0  0  0  0  0  0  0  0  0  0  0
   20.3273   19.2740   23.5981 C   0  0  0  0  0  0  0  0  0  0  0  0
   19.3977   18.7371   23.3696 H   0  0  0  0  0  0  0  0  0  0  0  0
   21.1545   18.5615   23.4760 H   0  0  0  0  0  0  0  0  0  0  0  0
   20.5042   20.4470   22.6086 C   0  0  0  0  0  0  0  0  0  0  0  0
   19.6285   21.1078   22.6658 H   0  0  0  0  0  0  0  0  0  0  0  0
   21.3667   21.0509   22.9220 H   0  0  0  0  0  0  0  0  0  0  0  0
   20.7259   20.0122   21.1379 C   0  0  0  0  0  0  0  0  0  0  0  0
   21.6520   19.4275   21.0532 H   0  0  0  0  0  0  0  0  0  0  0  0
   20.8933   20.9228   20.5466 H   0  0  0  0  0  0  0  0  0  0  0  0
   19.5428   19.2378   20.5048 C   0  0  0  0  0  0  0  0  0  0  0  0
   18.5966   19.5336   20.9787 H   0  0  0  0  0  0  0  0  0  0  0  0
   19.4588   19.5279   19.4484 H   0  0  0  0  0  0  0  0  0  0  0  0
   19.7161   17.7037   20.5656 C   0  0  0  0  0  0  0  0  0  0  0  0
   19.7885   17.3411   21.5972 H   0  0  0  0  0  0  0  0  0  0  0  0
   18.8615   17.2019   20.0936 H   0  0  0  0  0  0  0  0  0  0  0  0
   20.6240   17.3922   20.0329 H   0  0  0  0  0  0  0  0  0  0  0  0
  1  2  1  0  0  0  0
  1  3  2  0  0  0  0
  1  4  1  0  0  0  0
  4  5  1  0  0  0  0
  4  6  1  0  0  0  0
  4  7  1  0  0  0  0
  7  8  1  0  0  0  0
  7  9  1  0  0  0  0
  7 10  1  0  0  0  0
 10 11  1  0  0  0  0
 10 12  1  0  0  0  0
 10 13  1  0  0  0  0
 13 14  1  0  0  0  0
 13 15  1  0  0  0  0
 13 16  1  0  0  0  0
 16 17  1  0  0  0  0
 16 18  1  0  0  0  0
 16 19  1  0  0  0  0
 19 20  1  0  0  0  0
 19 21  1  0  0  0  0
 19 22  1  0  0  0  0
 22 23  1  0  0  0  0
 22 24  1  0  0  0  0
 22 25  1  0  0  0  0
M  END
> <VM2 Rank>
86

> <Conf_Id>
979

> <Probability>
0.03

> <Sum Probability>
99.48

> <Delta G>
3.933

> <G>
-4.029

> <E>
-28.762

> <-TS>
24.733

> <U+W>
-49.329

> <U>
9.708

> <W>
-59.037

> <W(PB)>
-61.493

> <W(SA)>
2.456

> <Valence>
10.529

> <Coulomb>
-1.841

> <VdW>
1.019

> <VdW6>
-9.201

> <VdW12>
10.221

> <Bond>
0.191

> <Angle>
3.009

> <Pdih>
7.328

> <Idih>
0.001

> <Tether>
0.000

$$$$
VeraChem MOL file


 25 24  0  0  0  0  0  0  0  0999 V2000     
   19.8963   19.1946   27.5096 C   0  0  0  0  0  0  0  0  0  0  0  0
   20.8612   19.3849   28.2234 O   0  5  0  0  0  0  0  0  0  0  0  0
   18.7594   19.4893   27.8216 O   0  0  0  0  0  0  0  0  0  0  0  0
   20.1275   18.5709   26.1379 C   0  0  0  0  0  0  0  0  0  0  0  0
   19.2459   17.9704   25.8837 H   0  0  0  0  0  0  0  0  0  0  0  0
   20.9775   17.8824   26.2155 H   0  0  0  0  0  0  0  0  0  0  0  0
   20.3923   19.6251   25.0348 C   0  0  0  0  0  0  0  0  0  0  0  0
   19.5381   20.3140   24.9789 H   0  0  0  0  0  0  0  0  0  0  0  0
   21.2698   20.2264   25.3103 H   0  0  0  0  0  0  0  0  0  0  0  0
   20.6218   18.9691   23.6560 C   0  0  0  0  0  0  0  0  0  0  0  0
   19.7474   18.3620   23.3934 H   0  0  0  0  0  0  0  0  0  0  0  0
   21.4762   18.2812   23.7167 H   0  0  0  0  0  0  0  0  0  0  0  0
   20.8916   20.0257   22.5589 C   0  0  0  0  0  0  0  0  0  0  0  0
   20.0712   20.7552   22.5202 H   0  0  0  0  0  0  0  0  0  0  0  0
   21.7904   20.5905   22.8419 H   0  0  0  0  0  0  0  0  0  0  0  0
   21.1208   19.4092   21.1553 C   0  0  0  0  0  0  0  0  0  0  0  0
   21.5492   18.4018   21.2468 H   0  0  0  0  0  0  0  0  0  0  0  0
   21.8811   20.0107   20.6385 H   0  0  0  0  0  0  0  0  0  0  0  0
   19.8633   19.3725   20.2520 C   0  0  0  0  0  0  0  0  0  0  0  0
   19.4934   20.3950   20.0942 H   0  0  0  0  0  0  0  0  0  0  0  0
   20.1561   18.9958   19.2623 H   0  0  0  0  0  0  0  0  0  0  0  0
   18.7187   18.4928   20.7966 C   0  0  0  0  0  0  0  0  0  0  0  0
   18.2855   18.9264   21.7065 H   0  0  0  0  0  0  0  0  0  0  0  0
   17.9136   18.4082   20.0554 H   0  0  0  0  0  0  0  0  0  0  0  0
   19.0751   17.4805   21.0270 H   0  0  0  0  0  0  0  0  0  0  0  0
  1  2  1  0  0  0  0
  1  3  2  0  0  0  0
  1  4  1  0  0  0  0
  4  5  1  0  0  0  0
  4  6  1  0  0  0  0
  4  7  1  0  0  0  0
  7  8  1  0  0  0  0
  7  9  1  0  0  0  0
  7 10  1  0  0  0  0
 10 11  1  0  0  0  0
 10 12  1  0  0  0  0
 10 13  1  0  0  0  0
 13 14  1  0  0  0  0
 13 15  1  0  0  0  0
 13 16  1  0  0  0  0
 16 17  1  0  0  0  0
 16 18  1  0  0  0  0
 16 19  1  0  0  0  0
 19 20  1  0  0  0  0
 19 21  1  0  0  0  0
 19 22  1  0  0  0  0
 22 23  1  0  0  0  0
 22 24  1  0  0  0  0
 22 25  1  0  0  0  0
M  END
> <VM2 Rank>
87

> <Conf_Id>
394

> <Probability>
0.03

> <Sum Probability>
99.51

> <Delta G>
3.936

> <G>
-4.027

> <E>
-28.762

> <-TS>
24.736

> <U+W>
-49.330

> <U>
9.739

> <W>
-59.069

> <W(PB)>
-61.524

> <W(SA)>
2.454

> <Valence>
10.506

> <Coulomb>
-1.761

> <VdW>
0.994

> <VdW6>
-9.209

> <VdW12>
10.203

> <Bond>
0.193

> <Angle>
2.979

> <Pdih>
7.334

> <Idih>
0.001

> <Tether>
0.000

$$$$
VeraChem MOL file


 25 24  0  0  0  0  0  0  0  0999 V2000     
   20.5262   19.6548   27.1793 C   0  0  0  0  0  0  0  0  0  0  0  0
   21.5854   20.2476   27.1222 O   0  5  0  0  0  0  0  0  0  0  0  0
   19.6607   19.8996   27.9963 O   0  0  0  0  0  0  0  0  0  0  0  0
   20.2599   18.5565   26.1561 C   0  0  0  0  0  0  0  0  0  0  0  0
   19.6365   17.7905   26.6327 H   0  0  0  0  0  0  0  0  0  0  0  0
   21.2179   18.0854   25.9051 H   0  0  0  0  0  0  0  0  0  0  0  0
   19.5723   19.0842   24.8729 C   0  0  0  0  0  0  0  0  0  0  0  0
   18.6212   19.5626   25.1443 H   0  0  0  0  0  0  0  0  0  0  0  0
   20.1994   19.8653   24.4265 H   0  0  0  0  0  0  0  0  0  0  0  0
   19.3089   17.9493   23.8550 C   0  0  0  0  0  0  0  0  0  0  0  0
   18.6510   17.2091   24.3307 H   0  0  0  0  0  0  0  0  0  0  0  0
   20.2432   17.4214   23.6193 H   0  0  0  0  0  0  0  0  0  0  0  0
   18.6327   18.4411   22.5502 C   0  0  0  0  0  0  0  0  0  0  0  0
   17.9251   17.6684   22.2199 H   0  0  0  0  0  0  0  0  0  0  0  0
   18.0260   19.3352   22.7488 H   0  0  0  0  0  0  0  0  0  0  0  0
   19.6086   18.7105   21.3771 C   0  0  0  0  0  0  0  0  0  0  0  0
   19.0162   18.9756   20.4907 H   0  0  0  0  0  0  0  0  0  0  0  0
   20.1410   17.7832   21.1252 H   0  0  0  0  0  0  0  0  0  0  0  0
   20.6342   19.8328   21.6477 C   0  0  0  0  0  0  0  0  0  0  0  0
   20.1133   20.7390   21.9862 H   0  0  0  0  0  0  0  0  0  0  0  0
   21.3155   19.5287   22.4532 H   0  0  0  0  0  0  0  0  0  0  0  0
   21.4640   20.1576   20.3891 C   0  0  0  0  0  0  0  0  0  0  0  0
   20.8186   20.5011   19.5701 H   0  0  0  0  0  0  0  0  0  0  0  0
   22.1932   20.9504   20.6009 H   0  0  0  0  0  0  0  0  0  0  0  0
   22.0154   19.2732   20.0437 H   0  0  0  0  0  0  0  0  0  0  0  0
  1  2  1  0  0  0  0
  1  3  2  0  0  0  0
  1  4  1  0  0  0  0
  4  5  1  0  0  0  0
  4  6  1  0  0  0  0
  4  7  1  0  0  0  0
  7  8  1  0  0  0  0
  7  9  1  0  0  0  0
  7 10  1  0  0  0  0
 10 11  1  0  0  0  0
 10 12  1  0  0  0  0
 10 13  1  0  0  0  0
 13 14  1  0  0  0  0
 13 15  1  0  0  0  0
 13 16  1  0  0  0  0
 16 17  1  0  0  0  0
 16 18  1  0  0  0  0
 16 19  1  0  0  0  0
 19 20  1  0  0  0  0
 19 21  1  0  0  0  0
 19 22  1  0  0  0  0
 22 23  1  0  0  0  0
 22 24  1  0  0  0  0
 22 25  1  0  0  0  0
M  END
> <VM2 Rank>
88

> <Conf_Id>
990

> <Probability>
0.03

> <Sum Probability>
99.55

> <Delta G>
3.946

> <G>
-4.017

> <E>
-28.791

> <-TS>
24.775

> <U+W>
-49.359

> <U>
10.175

> <W>
-59.534

> <W(PB)>
-62.003

> <W(SA)>
2.470

> <Valence>
10.554

> <Coulomb>
-1.316

> <VdW>
0.937

> <VdW6>
-9.356

> <VdW12>
10.292

> <Bond>
0.194

> <Angle>
2.996

> <Pdih>
7.363

> <Idih>
0.001

> <Tether>
0.000

$$$$
VeraChem MOL file


 25 24  0  0  0  0  0  0  0  0999 V2000     
   19.9764   18.7909   27.1123 C   0  0  0  0  0  0  0  0  0  0  0  0
   20.5620   17.7356   27.2543 O   0  5  0  0  0  0  0  0  0  0  0  0
   18.8991   19.0365   27.6180 O   0  0  0  0  0  0  0  0  0  0  0  0
   20.6203   19.8592   26.2358 C   0  0  0  0  0  0  0  0  0  0  0  0
   21.7090   19.7616   26.3235 H   0  0  0  0  0  0  0  0  0  0  0  0
   20.3486   20.8411   26.6414 H   0  0  0  0  0  0  0  0  0  0  0  0
   20.1926   19.7559   24.7511 C   0  0  0  0  0  0  0  0  0  0  0  0
   20.4592   18.7590   24.3761 H   0  0  0  0  0  0  0  0  0  0  0  0
   19.1001   19.8490   24.6803 H   0  0  0  0  0  0  0  0  0  0  0  0
   20.8675   20.8405   23.8820 C   0  0  0  0  0  0  0  0  0  0  0  0
   21.9552   20.6864   23.8858 H   0  0  0  0  0  0  0  0  0  0  0  0
   20.6940   21.8239   24.3399 H   0  0  0  0  0  0  0  0  0  0  0  0
   20.3604   20.8902   22.4189 C   0  0  0  0  0  0  0  0  0  0  0  0
   19.2907   21.1398   22.3988 H   0  0  0  0  0  0  0  0  0  0  0  0
   20.8705   21.7261   21.9209 H   0  0  0  0  0  0  0  0  0  0  0  0
   20.6279   19.6039   21.5966 C   0  0  0  0  0  0  0  0  0  0  0  0
   21.5135   19.0839   21.9868 H   0  0  0  0  0  0  0  0  0  0  0  0
   20.8735   19.8942   20.5660 H   0  0  0  0  0  0  0  0  0  0  0  0
   19.4167   18.6437   21.5497 C   0  0  0  0  0  0  0  0  0  0  0  0
   19.1173   18.3501   22.5630 H   0  0  0  0  0  0  0  0  0  0  0  0
   18.5551   19.1606   21.1050 H   0  0  0  0  0  0  0  0  0  0  0  0
   19.7302   17.3776   20.7273 C   0  0  0  0  0  0  0  0  0  0  0  0
   20.5683   16.8216   21.1677 H   0  0  0  0  0  0  0  0  0  0  0  0
   18.8593   16.7101   20.6975 H   0  0  0  0  0  0  0  0  0  0  0  0
   19.9951   17.6356   19.6936 H   0  0  0  0  0  0  0  0  0  0  0  0
  1  2  1  0  0  0  0
  1  3  2  0  0  0  0
  1  4  1  0  0  0  0
  4  5  1  0  0  0  0
  4  6  1  0  0  0  0
  4  7  1  0  0  0  0
  7  8  1  0  0  0  0
  7  9  1  0  0  0  0
  7 10  1  0  0  0  0
 10 11  1  0  0  0  0
 10 12  1  0  0  0  0
 10 13  1  0  0  0  0
 13 14  1  0  0  0  0
 13 15  1  0  0  0  0
 13 16  1  0  0  0  0
 16 17  1  0  0  0  0
 16 18  1  0  0  0  0
 16 19  1  0  0  0  0
 19 20  1  0  0  0  0
 19 21  1  0  0  0  0
 19 22  1  0  0  0  0
 22 23  1  0  0  0  0
 22 24  1  0  0  0  0
 22 25  1  0  0  0  0
M  END
> <VM2 Rank>
89

> <Conf_Id>
36

> <Probability>
0.03

> <Sum Probability>
99.58

> <Delta G>
3.947

> <G>
-4.015

> <E>
-28.797

> <-TS>
24.782

> <U+W>
-49.365

> <U>
10.481

> <W>
-59.846

> <W(PB)>
-62.298

> <W(SA)>
2.453

> <Valence>
10.552

> <Coulomb>
-0.994

> <VdW>
0.923

> <VdW6>
-9.371

> <VdW12>
10.294

> <Bond>
0.194

> <Angle>
2.991

> <Pdih>
7.366

> <Idih>
0.000

> <Tether>
0.000

$$$$
VeraChem MOL file


 25 24  0  0  0  0  0  0  0  0999 V2000     
   20.4333   19.2287   27.5035 C   0  0  0  0  0  0  0  0  0  0  0  0
   21.5304   19.6658   27.7897 O   0  5  0  0  0  0  0  0  0  0  0  0
   19.4687   19.2960   28.2394 O   0  0  0  0  0  0  0  0  0  0  0  0
   20.2517   18.5789   26.1364 C   0  0  0  0  0  0  0  0  0  0  0  0
   19.4980   17.7881   26.2325 H   0  0  0  0  0  0  0  0  0  0  0  0
   21.1964   18.0948   25.8612 H   0  0  0  0  0  0  0  0  0  0  0  0
   19.8300   19.5893   25.0413 C   0  0  0  0  0  0  0  0  0  0  0  0
   18.8899   20.0748   25.3378 H   0  0  0  0  0  0  0  0  0  0  0  0
   20.5885   20.3810   24.9668 H   0  0  0  0  0  0  0  0  0  0  0  0
   19.6539   18.9076   23.6671 C   0  0  0  0  0  0  0  0  0  0  0  0
   18.8953   18.1169   23.7465 H   0  0  0  0  0  0  0  0  0  0  0  0
   20.5920   18.4158   23.3836 H   0  0  0  0  0  0  0  0  0  0  0  0
   19.2271   19.9198   22.5781 C   0  0  0  0  0  0  0  0  0  0  0  0
   18.2707   20.3665   22.8826 H   0  0  0  0  0  0  0  0  0  0  0  0
   19.9473   20.7474   22.5216 H   0  0  0  0  0  0  0  0  0  0  0  0
   19.0456   19.2772   21.1793 C   0  0  0  0  0  0  0  0  0  0  0  0
   18.2036   19.7767   20.6809 H   0  0  0  0  0  0  0  0  0  0  0  0
   18.7506   18.2237   21.2791 H   0  0  0  0  0  0  0  0  0  0  0  0
   20.2766   19.3988   20.2472 C   0  0  0  0  0  0  0  0  0  0  0  0
   20.0112   18.9866   19.2639 H   0  0  0  0  0  0  0  0  0  0  0  0
   20.5102   20.4597   20.0824 H   0  0  0  0  0  0  0  0  0  0  0  0
   21.5356   18.6720   20.7640 C   0  0  0  0  0  0  0  0  0  0  0  0
   21.3157   17.6230   21.0011 H   0  0  0  0  0  0  0  0  0  0  0  0
   22.3276   18.6890   20.0042 H   0  0  0  0  0  0  0  0  0  0  0  0
   21.9313   19.1583   21.6643 H   0  0  0  0  0  0  0  0  0  0  0  0
  1  2  1  0  0  0  0
  1  3  2  0  0  0  0
  1  4  1  0  0  0  0
  4  5  1  0  0  0  0
  4  6  1  0  0  0  0
  4  7  1  0  0  0  0
  7  8  1  0  0  0  0
  7  9  1  0  0  0  0
  7 10  1  0  0  0  0
 10 11  1  0  0  0  0
 10 12  1  0  0  0  0
 10 13  1  0  0  0  0
 13 14  1  0  0  0  0
 13 15  1  0  0  0  0
 13 16  1  0  0  0  0
 16 17  1  0  0  0  0
 16 18  1  0  0  0  0
 16 19  1  0  0  0  0
 19 20  1  0  0  0  0
 19 21  1  0  0  0  0
 19 22  1  0  0  0  0
 22 23  1  0  0  0  0
 22 24  1  0  0  0  0
 22 25  1  0  0  0  0
M  END
> <VM2 Rank>
90

> <Conf_Id>
393

> <Probability>
0.03

> <Sum Probability>
99.61

> <Delta G>
3.949

> <G>
-4.013

> <E>
-28.749

> <-TS>
24.736

> <U+W>
-49.316

> <U>
9.739

> <W>
-59.056

> <W(PB)>
-61.487

> <W(SA)>
2.432

> <Valence>
10.506

> <Coulomb>
-1.761

> <VdW>
0.994

> <VdW6>
-9.209

> <VdW12>
10.203

> <Bond>
0.193

> <Angle>
2.980

> <Pdih>
7.333

> <Idih>
0.001

> <Tether>
0.000

$$$$
VeraChem MOL file


 25 24  0  0  0  0  0  0  0  0999 V2000     
   20.3133   19.0657   27.5052 C   0  0  0  0  0  0  0  0  0  0  0  0
   21.3599   19.4915   27.9522 O   0  5  0  0  0  0  0  0  0  0  0  0
   19.2828   19.0040   28.1464 O   0  0  0  0  0  0  0  0  0  0  0  0
   20.2860   18.6034   26.0528 C   0  0  0  0  0  0  0  0  0  0  0  0
   19.5596   17.7862   25.9689 H   0  0  0  0  0  0  0  0  0  0  0  0
   21.2712   18.1877   25.8091 H   0  0  0  0  0  0  0  0  0  0  0  0
   19.9268   19.7413   25.0658 C   0  0  0  0  0  0  0  0  0  0  0  0
   18.9443   20.1552   25.3319 H   0  0  0  0  0  0  0  0  0  0  0  0
   20.6559   20.5567   25.1707 H   0  0  0  0  0  0  0  0  0  0  0  0
   19.9059   19.2473   23.6030 C   0  0  0  0  0  0  0  0  0  0  0  0
   19.1731   18.4356   23.4989 H   0  0  0  0  0  0  0  0  0  0  0  0
   20.8906   18.8320   23.3524 H   0  0  0  0  0  0  0  0  0  0  0  0
   19.5592   20.3870   22.6195 C   0  0  0  0  0  0  0  0  0  0  0  0
   18.6347   20.8773   22.9536 H   0  0  0  0  0  0  0  0  0  0  0  0
   20.3453   21.1534   22.6575 H   0  0  0  0  0  0  0  0  0  0  0  0
   19.3607   19.9255   21.1537 C   0  0  0  0  0  0  0  0  0  0  0  0
   19.0658   20.8067   20.5677 H   0  0  0  0  0  0  0  0  0  0  0  0
   18.5142   19.2282   21.0895 H   0  0  0  0  0  0  0  0  0  0  0  0
   20.6173   19.3061   20.4924 C   0  0  0  0  0  0  0  0  0  0  0  0
   20.6397   19.6029   19.4348 H   0  0  0  0  0  0  0  0  0  0  0  0
   21.5291   19.7198   20.9449 H   0  0  0  0  0  0  0  0  0  0  0  0
   20.6409   17.7624   20.5549 C   0  0  0  0  0  0  0  0  0  0  0  0
   19.7678   17.3378   20.0428 H   0  0  0  0  0  0  0  0  0  0  0  0
   21.5411   17.3721   20.0627 H   0  0  0  0  0  0  0  0  0  0  0  0
   20.6386   17.3951   21.5874 H   0  0  0  0  0  0  0  0  0  0  0  0
  1  2  1  0  0  0  0
  1  3  2  0  0  0  0
  1  4  1  0  0  0  0
  4  5  1  0  0  0  0
  4  6  1  0  0  0  0
  4  7  1  0  0  0  0
  7  8  1  0  0  0  0
  7  9  1  0  0  0  0
  7 10  1  0  0  0  0
 10 11  1  0  0  0  0
 10 12  1  0  0  0  0
 10 13  1  0  0  0  0
 13 14  1  0  0  0  0
 13 15  1  0  0  0  0
 13 16  1  0  0  0  0
 16 17  1  0  0  0  0
 16 18  1  0  0  0  0
 16 19  1  0  0  0  0
 19 20  1  0  0  0  0
 19 21  1  0  0  0  0
 19 22  1  0  0  0  0
 22 23  1  0  0  0  0
 22 24  1  0  0  0  0
 22 25  1  0  0  0  0
M  END
> <VM2 Rank>
91

> <Conf_Id>
1031

> <Probability>
0.03

> <Sum Probability>
99.64

> <Delta G>
3.974

> <G>
-3.989

> <E>
-28.722

> <-TS>
24.734

> <U+W>
-49.290

> <U>
9.707

> <W>
-58.997

> <W(PB)>
-61.445

> <W(SA)>
2.448

> <Valence>
10.529

> <Coulomb>
-1.841

> <VdW>
1.019

> <VdW6>
-9.201

> <VdW12>
10.221

> <Bond>
0.191

> <Angle>
3.009

> <Pdih>
7.328

> <Idih>
0.001

> <Tether>
0.000

$$$$
VeraChem MOL file


 25 24  0  0  0  0  0  0  0  0999 V2000     
   19.9228   19.3686   27.1425 C   0  0  0  0  0  0  0  0  0  0  0  0
   20.8923   19.0949   27.8224 O   0  5  0  0  0  0  0  0  0  0  0  0
   18.8198   18.8903   27.3207 O   0  0  0  0  0  0  0  0  0  0  0  0
   20.0975   20.3847   26.0172 C   0  0  0  0  0  0  0  0  0  0  0  0
   20.6656   21.2293   26.4244 H   0  0  0  0  0  0  0  0  0  0  0  0
   19.1100   20.7714   25.7376 H   0  0  0  0  0  0  0  0  0  0  0  0
   20.8262   19.8252   24.7676 C   0  0  0  0  0  0  0  0  0  0  0  0
   21.0373   20.6589   24.0858 H   0  0  0  0  0  0  0  0  0  0  0  0
   21.7966   19.4066   25.0681 H   0  0  0  0  0  0  0  0  0  0  0  0
   19.9963   18.7482   24.0286 C   0  0  0  0  0  0  0  0  0  0  0  0
   19.0388   19.1754   23.7033 H   0  0  0  0  0  0  0  0  0  0  0  0
   19.7448   17.9419   24.7308 H   0  0  0  0  0  0  0  0  0  0  0  0
   20.7346   18.1232   22.8182 C   0  0  0  0  0  0  0  0  0  0  0  0
   21.6430   17.6218   23.1785 H   0  0  0  0  0  0  0  0  0  0  0  0
   20.1070   17.3294   22.3923 H   0  0  0  0  0  0  0  0  0  0  0  0
   21.1306   19.1183   21.6954 C   0  0  0  0  0  0  0  0  0  0  0  0
   21.6233   18.5578   20.8894 H   0  0  0  0  0  0  0  0  0  0  0  0
   21.8886   19.8147   22.0772 H   0  0  0  0  0  0  0  0  0  0  0  0
   19.9593   19.9323   21.0922 C   0  0  0  0  0  0  0  0  0  0  0  0
   19.5058   20.5695   21.8629 H   0  0  0  0  0  0  0  0  0  0  0  0
   20.3623   20.6150   20.3317 H   0  0  0  0  0  0  0  0  0  0  0  0
   18.8736   19.0482   20.4413 C   0  0  0  0  0  0  0  0  0  0  0  0
   18.1102   19.6708   19.9572 H   0  0  0  0  0  0  0  0  0  0  0  0
   19.3085   18.3903   19.6779 H   0  0  0  0  0  0  0  0  0  0  0  0
   18.3687   18.4227   21.1882 H   0  0  0  0  0  0  0  0  0  0  0  0
  1  2  1  0  0  0  0
  1  3  2  0  0  0  0
  1  4  1  0  0  0  0
  4  5  1  0  0  0  0
  4  6  1  0  0  0  0
  4  7  1  0  0  0  0
  7  8  1  0  0  0  0
  7  9  1  0  0  0  0
  7 10  1  0  0  0  0
 10 11  1  0  0  0  0
 10 12  1  0  0  0  0
 10 13  1  0  0  0  0
 13 14  1  0  0  0  0
 13 15  1  0  0  0  0
 13 16  1  0  0  0  0
 16 17  1  0  0  0  0
 16 18  1  0  0  0  0
 16 19  1  0  0  0  0
 19 20  1  0  0  0  0
 19 21  1  0  0  0  0
 19 22  1  0  0  0  0
 22 23  1  0  0  0  0
 22 24  1  0  0  0  0
 22 25  1  0  0  0  0
M  END
> <VM2 Rank>
92

> <Conf_Id>
1120

> <Probability>
0.02

> <Sum Probability>
99.66

> <Delta G>
4.270

> <G>
-3.693

> <E>
-29.155

> <-TS>
25.462

> <U+W>
-49.722

> <U>
10.166

> <W>
-59.888

> <W(PB)>
-62.282

> <W(SA)>
2.394

> <Valence>
9.218

> <Coulomb>
0.150

> <VdW>
0.798

> <VdW6>
-11.033

> <VdW12>
11.831

> <Bond>
0.256

> <Angle>
3.425

> <Pdih>
5.536

> <Idih>
0.001

> <Tether>
0.000

$$$$
VeraChem MOL file


 25 24  0  0  0  0  0  0  0  0999 V2000     
   19.9514   19.7917   26.7081 C   0  0  0  0  0  0  0  0  0  0  0  0
   20.2082   19.3324   27.8039 O   0  5  0  0  0  0  0  0  0  0  0  0
   18.8712   20.2645   26.4140 O   0  0  0  0  0  0  0  0  0  0  0  0
   21.0565   19.7993   25.6556 C   0  0  0  0  0  0  0  0  0  0  0  0
   21.9473   20.2367   26.1210 H   0  0  0  0  0  0  0  0  0  0  0  0
   20.7652   20.4770   24.8449 H   0  0  0  0  0  0  0  0  0  0  0  0
   21.4069   18.3942   25.0940 C   0  0  0  0  0  0  0  0  0  0  0  0
   22.2545   18.4827   24.4022 H   0  0  0  0  0  0  0  0  0  0  0  0
   21.7581   17.7619   25.9211 H   0  0  0  0  0  0  0  0  0  0  0  0
   20.2292   17.6755   24.3862 C   0  0  0  0  0  0  0  0  0  0  0  0
   19.4397   17.4714   25.1225 H   0  0  0  0  0  0  0  0  0  0  0  0
   20.5747   16.6938   24.0349 H   0  0  0  0  0  0  0  0  0  0  0  0
   19.6075   18.4454   23.1941 C   0  0  0  0  0  0  0  0  0  0  0  0
   18.7836   17.8448   22.7857 H   0  0  0  0  0  0  0  0  0  0  0  0
   19.1541   19.3767   23.5567 H   0  0  0  0  0  0  0  0  0  0  0  0
   20.6195   18.7481   22.0622 C   0  0  0  0  0  0  0  0  0  0  0  0
   21.1347   17.8184   21.7851 H   0  0  0  0  0  0  0  0  0  0  0  0
   21.3925   19.4387   22.4241 H   0  0  0  0  0  0  0  0  0  0  0  0
   19.9611   19.3442   20.7963 C   0  0  0  0  0  0  0  0  0  0  0  0
   20.7214   19.4231   20.0070 H   0  0  0  0  0  0  0  0  0  0  0  0
   19.1919   18.6565   20.4187 H   0  0  0  0  0  0  0  0  0  0  0  0
   19.3414   20.7388   21.0318 C   0  0  0  0  0  0  0  0  0  0  0  0
   20.0867   21.4367   21.4351 H   0  0  0  0  0  0  0  0  0  0  0  0
   18.9630   21.1553   20.0893 H   0  0  0  0  0  0  0  0  0  0  0  0
   18.5005   20.6896   21.7349 H   0  0  0  0  0  0  0  0  0  0  0  0
  1  2  1  0  0  0  0
  1  3  2  0  0  0  0
  1  4  1  0  0  0  0
  4  5  1  0  0  0  0
  4  6  1  0  0  0  0
  4  7  1  0  0  0  0
  7  8  1  0  0  0  0
  7  9  1  0  0  0  0
  7 10  1  0  0  0  0
 10 11  1  0  0  0  0
 10 12  1  0  0  0  0
 10 13  1  0  0  0  0
 13 14  1  0  0  0  0
 13 15  1  0  0  0  0
 13 16  1  0  0  0  0
 16 17  1  0  0  0  0
 16 18  1  0  0  0  0
 16 19  1  0  0  0  0
 19 20  1  0  0  0  0
 19 21  1  0  0  0  0
 19 22  1  0  0  0  0
 22 23  1  0  0  0  0
 22 24  1  0  0  0  0
 22 25  1  0  0  0  0
M  END
> <VM2 Rank>
93

> <Conf_Id>
237

> <Probability>
0.02

> <Sum Probability>
99.67

> <Delta G>
4.301

> <G>
-3.661

> <E>
-29.034

> <-TS>
25.373

> <U+W>
-49.602

> <U>
10.962

> <W>
-60.564

> <W(PB)>
-62.939

> <W(SA)>
2.375

> <Valence>
9.203

> <Coulomb>
1.167

> <VdW>
0.592

> <VdW6>
-11.372

> <VdW12>
11.964

> <Bond>
0.260

> <Angle>
3.321

> <Pdih>
5.621

> <Idih>
0.001

> <Tether>
0.000

$$$$
VeraChem MOL file


 25 24  0  0  0  0  0  0  0  0999 V2000     
   20.0297   19.1419   26.9840 C   0  0  0  0  0  0  0  0  0  0  0  0
   20.8990   19.3887   27.7970 O   0  5  0  0  0  0  0  0  0  0  0  0
   18.8761   19.5055   27.1025 O   0  0  0  0  0  0  0  0  0  0  0  0
   20.4038   18.3054   25.7637 C   0  0  0  0  0  0  0  0  0  0  0  0
   19.4839   17.9369   25.2955 H   0  0  0  0  0  0  0  0  0  0  0  0
   20.9436   17.4228   26.1259 H   0  0  0  0  0  0  0  0  0  0  0  0
   21.2825   19.0559   24.7261 C   0  0  0  0  0  0  0  0  0  0  0  0
   22.2202   19.3589   25.2119 H   0  0  0  0  0  0  0  0  0  0  0  0
   21.5687   18.3622   23.9249 H   0  0  0  0  0  0  0  0  0  0  0  0
   20.6131   20.3123   24.1119 C   0  0  0  0  0  0  0  0  0  0  0  0
   21.3191   20.7880   23.4187 H   0  0  0  0  0  0  0  0  0  0  0  0
   20.4396   21.0493   24.9078 H   0  0  0  0  0  0  0  0  0  0  0  0
   19.2703   20.0530   23.3795 C   0  0  0  0  0  0  0  0  0  0  0  0
   18.5148   19.7390   24.1123 H   0  0  0  0  0  0  0  0  0  0  0  0
   18.9061   21.0043   22.9689 H   0  0  0  0  0  0  0  0  0  0  0  0
   19.3297   19.0062   22.2387 C   0  0  0  0  0  0  0  0  0  0  0  0
   18.3198   18.8908   21.8223 H   0  0  0  0  0  0  0  0  0  0  0  0
   19.6050   18.0242   22.6450 H   0  0  0  0  0  0  0  0  0  0  0  0
   20.3008   19.3913   21.1001 C   0  0  0  0  0  0  0  0  0  0  0  0
   20.0482   20.3908   20.7203 H   0  0  0  0  0  0  0  0  0  0  0  0
   21.3284   19.4442   21.4834 H   0  0  0  0  0  0  0  0  0  0  0  0
   20.2480   18.3738   19.9426 C   0  0  0  0  0  0  0  0  0  0  0  0
   19.2403   18.3222   19.5101 H   0  0  0  0  0  0  0  0  0  0  0  0
   20.9451   18.6597   19.1443 H   0  0  0  0  0  0  0  0  0  0  0  0
   20.5240   17.3697   20.2904 H   0  0  0  0  0  0  0  0  0  0  0  0
  1  2  1  0  0  0  0
  1  3  2  0  0  0  0
  1  4  1  0  0  0  0
  4  5  1  0  0  0  0
  4  6  1  0  0  0  0
  4  7  1  0  0  0  0
  7  8  1  0  0  0  0
  7  9  1  0  0  0  0
  7 10  1  0  0  0  0
 10 11  1  0  0  0  0
 10 12  1  0  0  0  0
 10 13  1  0  0  0  0
 13 14  1  0  0  0  0
 13 15  1  0  0  0  0
 13 16  1  0  0  0  0
 16 17  1  0  0  0  0
 16 18  1  0  0  0  0
 16 19  1  0  0  0  0
 19 20  1  0  0  0  0
 19 21  1  0  0  0  0
 19 22  1  0  0  0  0
 22 23  1  0  0  0  0
 22 24  1  0  0  0  0
 22 25  1  0  0  0  0
M  END
> <VM2 Rank>
94

> <Conf_Id>
724

> <Probability>
0.02

> <Sum Probability>
99.69

> <Delta G>
4.312

> <G>
-3.650

> <E>
-29.213

> <-TS>
25.563

> <U+W>
-49.781

> <U>
10.242

> <W>
-60.023

> <W(PB)>
-62.388

> <W(SA)>
2.365

> <Valence>
9.192

> <Coulomb>
0.540

> <VdW>
0.509

> <VdW6>
-11.539

> <VdW12>
12.049

> <Bond>
0.268

> <Angle>
3.481

> <Pdih>
5.442

> <Idih>
0.001

> <Tether>
0.000

$$$$
VeraChem MOL file


 25 24  0  0  0  0  0  0  0  0999 V2000     
   19.6502   19.2520   26.7276 C   0  0  0  0  0  0  0  0  0  0  0  0
   20.2093   19.3344   27.8038 O   0  5  0  0  0  0  0  0  0  0  0  0
   18.6715   19.9069   26.4270 O   0  0  0  0  0  0  0  0  0  0  0  0
   20.1916   18.2500   25.7118 C   0  0  0  0  0  0  0  0  0  0  0  0
   19.4371   18.0984   24.9313 H   0  0  0  0  0  0  0  0  0  0  0  0
   20.3018   17.2894   26.2280 H   0  0  0  0  0  0  0  0  0  0  0  0
   21.5532   18.6561   25.0845 C   0  0  0  0  0  0  0  0  0  0  0  0
   22.3009   18.7339   25.8858 H   0  0  0  0  0  0  0  0  0  0  0  0
   21.9017   17.8507   24.4251 H   0  0  0  0  0  0  0  0  0  0  0  0
   21.5240   19.9946   24.3020 C   0  0  0  0  0  0  0  0  0  0  0  0
   22.5295   20.1949   23.9077 H   0  0  0  0  0  0  0  0  0  0  0  0
   21.3058   20.8134   25.0012 H   0  0  0  0  0  0  0  0  0  0  0  0
   20.5060   20.0546   23.1357 C   0  0  0  0  0  0  0  0  0  0  0  0
   19.4871   19.9730   23.5351 H   0  0  0  0  0  0  0  0  0  0  0  0
   20.5714   21.0469   22.6696 H   0  0  0  0  0  0  0  0  0  0  0  0
   20.7451   18.9730   22.0539 C   0  0  0  0  0  0  0  0  0  0  0  0
   20.5751   17.9744   22.4771 H   0  0  0  0  0  0  0  0  0  0  0  0
   21.7977   19.0062   21.7418 H   0  0  0  0  0  0  0  0  0  0  0  0
   19.8531   19.1511   20.8033 C   0  0  0  0  0  0  0  0  0  0  0  0
   20.0220   20.1442   20.3648 H   0  0  0  0  0  0  0  0  0  0  0  0
   20.1610   18.4198   20.0433 H   0  0  0  0  0  0  0  0  0  0  0  0
   18.3490   18.9611   21.0965 C   0  0  0  0  0  0  0  0  0  0  0  0
   17.9708   19.7406   21.7697 H   0  0  0  0  0  0  0  0  0  0  0  0
   17.7669   19.0129   20.1673 H   0  0  0  0  0  0  0  0  0  0  0  0
   18.1597   17.9843   21.5604 H   0  0  0  0  0  0  0  0  0  0  0  0
  1  2  1  0  0  0  0
  1  3  2  0  0  0  0
  1  4  1  0  0  0  0
  4  5  1  0  0  0  0
  4  6  1  0  0  0  0
  4  7  1  0  0  0  0
  7  8  1  0  0  0  0
  7  9  1  0  0  0  0
  7 10  1  0  0  0  0
 10 11  1  0  0  0  0
 10 12  1  0  0  0  0
 10 13  1  0  0  0  0
 13 14  1  0  0  0  0
 13 15  1  0  0  0  0
 13 16  1  0  0  0  0
 16 17  1  0  0  0  0
 16 18  1  0  0  0  0
 16 19  1  0  0  0  0
 19 20  1  0  0  0  0
 19 21  1  0  0  0  0
 19 22  1  0  0  0  0
 22 23  1  0  0  0  0
 22 24  1  0  0  0  0
 22 25  1  0  0  0  0
M  END
> <VM2 Rank>
95

> <Conf_Id>
813

> <Probability>
0.02

> <Sum Probability>
99.71

> <Delta G>
4.340

> <G>
-3.623

> <E>
-28.996

> <-TS>
25.373

> <U+W>
-49.563

> <U>
10.962

> <W>
-60.525

> <W(PB)>
-62.909

> <W(SA)>
2.385

> <Valence>
9.203

> <Coulomb>
1.166

> <VdW>
0.592

> <VdW6>
-11.371

> <VdW12>
11.964

> <Bond>
0.260

> <Angle>
3.321

> <Pdih>
5.622

> <Idih>
0.001

> <Tether>
0.000

$$$$
VeraChem MOL file


 25 24  0  0  0  0  0  0  0  0999 V2000     
   19.7742   19.4602   26.8698 C   0  0  0  0  0  0  0  0  0  0  0  0
   20.4535   19.5066   27.8768 O   0  5  0  0  0  0  0  0  0  0  0  0
   18.9297   20.2882   26.5902 O   0  0  0  0  0  0  0  0  0  0  0  0
   19.9747   18.2813   25.9216 C   0  0  0  0  0  0  0  0  0  0  0  0
   19.1256   18.2380   25.2299 H   0  0  0  0  0  0  0  0  0  0  0  0
   19.9310   17.3668   26.5244 H   0  0  0  0  0  0  0  0  0  0  0  0
   21.3158   18.3179   25.1391 C   0  0  0  0  0  0  0  0  0  0  0  0
   22.1444   18.2916   25.8602 H   0  0  0  0  0  0  0  0  0  0  0  0
   21.4107   17.4029   24.5405 H   0  0  0  0  0  0  0  0  0  0  0  0
   21.4926   19.5601   24.2276 C   0  0  0  0  0  0  0  0  0  0  0  0
   22.4658   19.4917   23.7230 H   0  0  0  0  0  0  0  0  0  0  0  0
   21.5425   20.4592   24.8572 H   0  0  0  0  0  0  0  0  0  0  0  0
   20.3879   19.7663   23.1606 C   0  0  0  0  0  0  0  0  0  0  0  0
   19.4214   19.9401   23.6521 H   0  0  0  0  0  0  0  0  0  0  0  0
   20.6189   20.6881   22.6122 H   0  0  0  0  0  0  0  0  0  0  0  0
   20.2651   18.5900   22.1608 C   0  0  0  0  0  0  0  0  0  0  0  0
   20.0250   17.6704   22.7094 H   0  0  0  0  0  0  0  0  0  0  0  0
   21.2326   18.4181   21.6700 H   0  0  0  0  0  0  0  0  0  0  0  0
   19.1710   18.8061   21.0892 C   0  0  0  0  0  0  0  0  0  0  0  0
   19.0542   17.8772   20.5142 H   0  0  0  0  0  0  0  0  0  0  0  0
   18.2046   18.9915   21.5782 H   0  0  0  0  0  0  0  0  0  0  0  0
   19.4887   19.9574   20.1102 C   0  0  0  0  0  0  0  0  0  0  0  0
   20.4673   19.8104   19.6351 H   0  0  0  0  0  0  0  0  0  0  0  0
   18.7318   20.0056   19.3166 H   0  0  0  0  0  0  0  0  0  0  0  0
   19.4955   20.9284   20.6206 H   0  0  0  0  0  0  0  0  0  0  0  0
  1  2  1  0  0  0  0
  1  3  2  0  0  0  0
  1  4  1  0  0  0  0
  4  5  1  0  0  0  0
  4  6  1  0  0  0  0
  4  7  1  0  0  0  0
  7  8  1  0  0  0  0
  7  9  1  0  0  0  0
  7 10  1  0  0  0  0
 10 11  1  0  0  0  0
 10 12  1  0  0  0  0
 10 13  1  0  0  0  0
 13 14  1  0  0  0  0
 13 15  1  0  0  0  0
 13 16  1  0  0  0  0
 16 17  1  0  0  0  0
 16 18  1  0  0  0  0
 16 19  1  0  0  0  0
 19 20  1  0  0  0  0
 19 21  1  0  0  0  0
 19 22  1  0  0  0  0
 22 23  1  0  0  0  0
 22 24  1  0  0  0  0
 22 25  1  0  0  0  0
M  END
> <VM2 Rank>
96

> <Conf_Id>
264

> <Probability>
0.01

> <Sum Probability>
99.72

> <Delta G>
4.391

> <G>
-3.571

> <E>
-28.895

> <-TS>
25.323

> <U+W>
-49.462

> <U>
10.878

> <W>
-60.340

> <W(PB)>
-62.738

> <W(SA)>
2.398

> <Valence>
9.321

> <Coulomb>
0.827

> <VdW>
0.731

> <VdW6>
-11.181

> <VdW12>
11.912

> <Bond>
0.267

> <Angle>
3.459

> <Pdih>
5.594

> <Idih>
0.001

> <Tether>
0.000

$$$$
VeraChem MOL file


 25 24  0  0  0  0  0  0  0  0999 V2000     
   20.5365   18.9182   26.7242 C   0  0  0  0  0  0  0  0  0  0  0  0
   21.7313   19.1396   26.7470 O   0  5  0  0  0  0  0  0  0  0  0  0
   20.0496   17.8285   26.9539 O   0  0  0  0  0  0  0  0  0  0  0  0
   19.5959   20.0798   26.4155 C   0  0  0  0  0  0  0  0  0  0  0  0
   19.9294   20.9389   27.0094 H   0  0  0  0  0  0  0  0  0  0  0  0
   18.5907   19.8202   26.7689 H   0  0  0  0  0  0  0  0  0  0  0  0
   19.5530   20.4719   24.9159 C   0  0  0  0  0  0  0  0  0  0  0  0
   18.9632   21.3913   24.8025 H   0  0  0  0  0  0  0  0  0  0  0  0
   20.5724   20.7042   24.5801 H   0  0  0  0  0  0  0  0  0  0  0  0
   18.9410   19.3601   24.0308 C   0  0  0  0  0  0  0  0  0  0  0  0
   17.9513   19.0933   24.4257 H   0  0  0  0  0  0  0  0  0  0  0  0
   19.5498   18.4489   24.1002 H   0  0  0  0  0  0  0  0  0  0  0  0
   18.7813   19.7722   22.5459 C   0  0  0  0  0  0  0  0  0  0  0  0
   18.2919   18.9538   22.0018 H   0  0  0  0  0  0  0  0  0  0  0  0
   18.0899   20.6236   22.4866 H   0  0  0  0  0  0  0  0  0  0  0  0
   20.0987   20.1527   21.8196 C   0  0  0  0  0  0  0  0  0  0  0  0
   20.5030   21.0737   22.2595 H   0  0  0  0  0  0  0  0  0  0  0  0
   19.8638   20.4012   20.7758 H   0  0  0  0  0  0  0  0  0  0  0  0
   21.1994   19.0634   21.8375 C   0  0  0  0  0  0  0  0  0  0  0  0
   22.0871   19.4538   21.3213 H   0  0  0  0  0  0  0  0  0  0  0  0
   21.5135   18.8604   22.8703 H   0  0  0  0  0  0  0  0  0  0  0  0
   20.7662   17.7475   21.1557 C   0  0  0  0  0  0  0  0  0  0  0  0
   21.6040   17.0394   21.1199 H   0  0  0  0  0  0  0  0  0  0  0  0
   19.9466   17.2662   21.7039 H   0  0  0  0  0  0  0  0  0  0  0  0
   20.4323   17.9300   20.1261 H   0  0  0  0  0  0  0  0  0  0  0  0
  1  2  1  0  0  0  0
  1  3  2  0  0  0  0
  1  4  1  0  0  0  0
  4  5  1  0  0  0  0
  4  6  1  0  0  0  0
  4  7  1  0  0  0  0
  7  8  1  0  0  0  0
  7  9  1  0  0  0  0
  7 10  1  0  0  0  0
 10 11  1  0  0  0  0
 10 12  1  0  0  0  0
 10 13  1  0  0  0  0
 13 14  1  0  0  0  0
 13 15  1  0  0  0  0
 13 16  1  0  0  0  0
 16 17  1  0  0  0  0
 16 18  1  0  0  0  0
 16 19  1  0  0  0  0
 19 20  1  0  0  0  0
 19 21  1  0  0  0  0
 19 22  1  0  0  0  0
 22 23  1  0  0  0  0
 22 24  1  0  0  0  0
 22 25  1  0  0  0  0
M  END
> <VM2 Rank>
97

> <Conf_Id>
239

> <Probability>
0.01

> <Sum Probability>
99.74

> <Delta G>
4.431

> <G>
-3.532

> <E>
-29.006

> <-TS>
25.475

> <U+W>
-49.574

> <U>
11.216

> <W>
-60.790

> <W(PB)>
-63.165

> <W(SA)>
2.375

> <Valence>
9.147

> <Coulomb>
1.470

> <VdW>
0.600

> <VdW6>
-11.295

> <VdW12>
11.895

> <Bond>
0.253

> <Angle>
3.362

> <Pdih>
5.531

> <Idih>
0.001

> <Tether>
0.000

$$$$
VeraChem MOL file


 25 24  0  0  0  0  0  0  0  0999 V2000     
   19.8145   18.8730   26.7325 C   0  0  0  0  0  0  0  0  0  0  0  0
   20.4384   17.8528   26.9492 O   0  5  0  0  0  0  0  0  0  0  0  0
   18.6023   18.9441   26.7832 O   0  0  0  0  0  0  0  0  0  0  0  0
   20.5959   20.1423   26.4040 C   0  0  0  0  0  0  0  0  0  0  0  0
   21.6334   20.0102   26.7338 H   0  0  0  0  0  0  0  0  0  0  0  0
   20.1718   20.9540   27.0067 H   0  0  0  0  0  0  0  0  0  0  0  0
   20.5551   20.5346   24.9044 C   0  0  0  0  0  0  0  0  0  0  0  0
   19.5073   20.6377   24.5925 H   0  0  0  0  0  0  0  0  0  0  0  0
   21.0231   21.5201   24.7789 H   0  0  0  0  0  0  0  0  0  0  0  0
   21.2803   19.5064   24.0038 C   0  0  0  0  0  0  0  0  0  0  0  0
   20.7914   18.5266   24.0859 H   0  0  0  0  0  0  0  0  0  0  0  0
   22.3043   19.3656   24.3754 H   0  0  0  0  0  0  0  0  0  0  0  0
   21.3531   19.9332   22.5163 C   0  0  0  0  0  0  0  0  0  0  0  0
   21.9315   20.8640   22.4423 H   0  0  0  0  0  0  0  0  0  0  0  0
   21.9281   19.1814   21.9599 H   0  0  0  0  0  0  0  0  0  0  0  0
   19.9822   20.1454   21.8210 C   0  0  0  0  0  0  0  0  0  0  0  0
   20.1603   20.4198   20.7724 H   0  0  0  0  0  0  0  0  0  0  0  0
   19.4764   21.0094   22.2714 H   0  0  0  0  0  0  0  0  0  0  0  0
   19.0266   18.9274   21.8625 C   0  0  0  0  0  0  0  0  0  0  0  0
   18.7642   18.6882   22.9020 H   0  0  0  0  0  0  0  0  0  0  0  0
   18.0855   19.2033   21.3675 H   0  0  0  0  0  0  0  0  0  0  0  0
   19.6047   17.6749   21.1690 C   0  0  0  0  0  0  0  0  0  0  0  0
   18.8611   16.8677   21.1515 H   0  0  0  0  0  0  0  0  0  0  0  0
   19.8894   17.8961   20.1322 H   0  0  0  0  0  0  0  0  0  0  0  0
   20.4903   17.3003   21.6974 H   0  0  0  0  0  0  0  0  0  0  0  0
  1  2  1  0  0  0  0
  1  3  2  0  0  0  0
  1  4  1  0  0  0  0
  4  5  1  0  0  0  0
  4  6  1  0  0  0  0
  4  7  1  0  0  0  0
  7  8  1  0  0  0  0
  7  9  1  0  0  0  0
  7 10  1  0  0  0  0
 10 11  1  0  0  0  0
 10 12  1  0  0  0  0
 10 13  1  0  0  0  0
 13 14  1  0  0  0  0
 13 15  1  0  0  0  0
 13 16  1  0  0  0  0
 16 17  1  0  0  0  0
 16 18  1  0  0  0  0
 16 19  1  0  0  0  0
 19 20  1  0  0  0  0
 19 21  1  0  0  0  0
 19 22  1  0  0  0  0
 22 23  1  0  0  0  0
 22 24  1  0  0  0  0
 22 25  1  0  0  0  0
M  END
> <VM2 Rank>
98

> <Conf_Id>
461

> <Probability>
0.01

> <Sum Probability>
99.75

> <Delta G>
4.437

> <G>
-3.525

> <E>
-29.000

> <-TS>
25.475

> <U+W>
-49.568

> <U>
11.216

> <W>
-60.784

> <W(PB)>
-63.159

> <W(SA)>
2.375

> <Valence>
9.147

> <Coulomb>
1.470

> <VdW>
0.600

> <VdW6>
-11.294

> <VdW12>
11.894

> <Bond>
0.253

> <Angle>
3.362

> <Pdih>
5.531

> <Idih>
0.001

> <Tether>
0.000

$$$$
VeraChem MOL file


 25 24  0  0  0  0  0  0  0  0999 V2000     
   19.9696   19.2194   26.9870 C   0  0  0  0  0  0  0  0  0  0  0  0
   20.6704   18.5408   27.7122 O   0  5  0  0  0  0  0  0  0  0  0  0
   18.7660   19.0795   26.8924 O   0  0  0  0  0  0  0  0  0  0  0  0
   20.6356   20.3261   26.1742 C   0  0  0  0  0  0  0  0  0  0  0  0
   21.2554   20.9090   26.8653 H   0  0  0  0  0  0  0  0  0  0  0  0
   19.8600   21.0069   25.8060 H   0  0  0  0  0  0  0  0  0  0  0  0
   21.5178   19.8116   25.0037 C   0  0  0  0  0  0  0  0  0  0  0  0
   22.0001   20.6673   24.5124 H   0  0  0  0  0  0  0  0  0  0  0  0
   22.3295   19.1989   25.4198 H   0  0  0  0  0  0  0  0  0  0  0  0
   20.7592   18.9762   23.9429 C   0  0  0  0  0  0  0  0  0  0  0  0
   20.3003   18.0989   24.4189 H   0  0  0  0  0  0  0  0  0  0  0  0
   21.4962   18.5909   23.2270 H   0  0  0  0  0  0  0  0  0  0  0  0
   19.6767   19.7811   23.1828 C   0  0  0  0  0  0  0  0  0  0  0  0
   18.9345   20.1556   23.8993 H   0  0  0  0  0  0  0  0  0  0  0  0
   20.1286   20.6669   22.7182 H   0  0  0  0  0  0  0  0  0  0  0  0
   18.9223   18.9486   22.1150 C   0  0  0  0  0  0  0  0  0  0  0  0
   18.1326   19.5742   21.6772 H   0  0  0  0  0  0  0  0  0  0  0  0
   18.4071   18.1162   22.6133 H   0  0  0  0  0  0  0  0  0  0  0  0
   19.7979   18.3802   20.9704 C   0  0  0  0  0  0  0  0  0  0  0  0
   20.5225   17.6582   21.3691 H   0  0  0  0  0  0  0  0  0  0  0  0
   19.1520   17.8132   20.2861 H   0  0  0  0  0  0  0  0  0  0  0  0
   20.5375   19.4705   20.1653 C   0  0  0  0  0  0  0  0  0  0  0  0
   21.2821   19.9865   20.7845 H   0  0  0  0  0  0  0  0  0  0  0  0
   21.0652   19.0263   19.3115 H   0  0  0  0  0  0  0  0  0  0  0  0
   19.8334   20.2179   19.7771 H   0  0  0  0  0  0  0  0  0  0  0  0
  1  2  1  0  0  0  0
  1  3  2  0  0  0  0
  1  4  1  0  0  0  0
  4  5  1  0  0  0  0
  4  6  1  0  0  0  0
  4  7  1  0  0  0  0
  7  8  1  0  0  0  0
  7  9  1  0  0  0  0
  7 10  1  0  0  0  0
 10 11  1  0  0  0  0
 10 12  1  0  0  0  0
 10 13  1  0  0  0  0
 13 14  1  0  0  0  0
 13 15  1  0  0  0  0
 13 16  1  0  0  0  0
 16 17  1  0  0  0  0
 16 18  1  0  0  0  0
 16 19  1  0  0  0  0
 19 20  1  0  0  0  0
 19 21  1  0  0  0  0
 19 22  1  0  0  0  0
 22 23  1  0  0  0  0
 22 24  1  0  0  0  0
 22 25  1  0  0  0  0
M  END
> <VM2 Rank>
99

> <Conf_Id>
558

> <Probability>
0.01

> <Sum Probability>
99.76

> <Delta G>
4.507

> <G>
-3.455

> <E>
-28.658

> <-TS>
25.203

> <U+W>
-49.226

> <U>
11.036

> <W>
-60.262

> <W(PB)>
-62.660

> <W(SA)>
2.398

> <Valence>
9.324

> <Coulomb>
0.929

> <VdW>
0.783

> <VdW6>
-11.027

> <VdW12>
11.810

> <Bond>
0.268

> <Angle>
3.515

> <Pdih>
5.539

> <Idih>
0.001

> <Tether>
0.000

$$$$
VeraChem MOL file


 25 24  0  0  0  0  0  0  0  0999 V2000     
   19.7056   18.8888   26.9412 C   0  0  0  0  0  0  0  0  0  0  0  0
   20.4382   18.4906   27.8251 O   0  5  0  0  0  0  0  0  0  0  0  0
   18.5551   19.2343   27.1253 O   0  0  0  0  0  0  0  0  0  0  0  0
   20.2684   18.9819   25.5275 C   0  0  0  0  0  0  0  0  0  0  0  0
   19.4497   18.7691   24.8308 H   0  0  0  0  0  0  0  0  0  0  0  0
   21.0196   18.1924   25.4068 H   0  0  0  0  0  0  0  0  0  0  0  0
   20.8912   20.3669   25.2196 C   0  0  0  0  0  0  0  0  0  0  0  0
   20.1056   21.1338   25.2653 H   0  0  0  0  0  0  0  0  0  0  0  0
   21.6093   20.6150   26.0134 H   0  0  0  0  0  0  0  0  0  0  0  0
   21.6193   20.4508   23.8543 C   0  0  0  0  0  0  0  0  0  0  0  0
   22.4754   19.7625   23.8409 H   0  0  0  0  0  0  0  0  0  0  0  0
   22.0465   21.4593   23.7687 H   0  0  0  0  0  0  0  0  0  0  0  0
   20.7110   20.2048   22.6227 C   0  0  0  0  0  0  0  0  0  0  0  0
   19.6810   20.5014   22.8585 H   0  0  0  0  0  0  0  0  0  0  0  0
   21.0412   20.8650   21.8092 H   0  0  0  0  0  0  0  0  0  0  0  0
   20.7612   18.7444   22.1074 C   0  0  0  0  0  0  0  0  0  0  0  0
   20.4388   18.0469   22.8892 H   0  0  0  0  0  0  0  0  0  0  0  0
   21.8038   18.4861   21.8776 H   0  0  0  0  0  0  0  0  0  0  0  0
   19.9101   18.5136   20.8371 C   0  0  0  0  0  0  0  0  0  0  0  0
   20.2243   19.2092   20.0468 H   0  0  0  0  0  0  0  0  0  0  0  0
   20.1106   17.5021   20.4579 H   0  0  0  0  0  0  0  0  0  0  0  0
   18.3929   18.6580   21.0858 C   0  0  0  0  0  0  0  0  0  0  0  0
   18.1268   19.6872   21.3566 H   0  0  0  0  0  0  0  0  0  0  0  0
   17.8290   18.3965   20.1811 H   0  0  0  0  0  0  0  0  0  0  0  0
   18.0623   17.9929   21.8942 H   0  0  0  0  0  0  0  0  0  0  0  0
  1  2  1  0  0  0  0
  1  3  2  0  0  0  0
  1  4  1  0  0  0  0
  4  5  1  0  0  0  0
  4  6  1  0  0  0  0
  4  7  1  0  0  0  0
  7  8  1  0  0  0  0
  7  9  1  0  0  0  0
  7 10  1  0  0  0  0
 10 11  1  0  0  0  0
 10 12  1  0  0  0  0
 10 13  1  0  0  0  0
 13 14  1  0  0  0  0
 13 15  1  0  0  0  0
 13 16  1  0  0  0  0
 16 17  1  0  0  0  0
 16 18  1  0  0  0  0
 16 19  1  0  0  0  0
 19 20  1  0  0  0  0
 19 21  1  0  0  0  0
 19 22  1  0  0  0  0
 22 23  1  0  0  0  0
 22 24  1  0  0  0  0
 22 25  1  0  0  0  0
M  END
> <VM2 Rank>
100

> <Conf_Id>
448

> <Probability>
0.01

> <Sum Probability>
99.77

> <Delta G>
4.542

> <G>
-3.420

> <E>
-28.278

> <-TS>
24.857

> <U+W>
-48.845

> <U>
11.037

> <W>
-59.882

> <W(PB)>
-62.300

> <W(SA)>
2.418

> <Valence>
11.015

> <Coulomb>
-0.980

> <VdW>
1.002

> <VdW6>
-10.121

> <VdW12>
11.123

> <Bond>
0.236

> <Angle>
3.219

> <Pdih>
7.559

> <Idih>
0.001

> <Tether>
0.000

$$$$
VeraChem MOL file


 25 24  0  0  0  0  0  0  0  0999 V2000     
   19.9506   19.6605   26.8830 C   0  0  0  0  0  0  0  0  0  0  0  0
   20.8697   20.4133   27.1404 O   0  5  0  0  0  0  0  0  0  0  0  0
   18.7813   19.9883   26.9340 O   0  0  0  0  0  0  0  0  0  0  0  0
   20.2769   18.2083   26.5399 C   0  0  0  0  0  0  0  0  0  0  0  0
   19.3404   17.6582   26.3883 H   0  0  0  0  0  0  0  0  0  0  0  0
   20.7506   17.7810   27.4313 H   0  0  0  0  0  0  0  0  0  0  0  0
   21.2221   18.0101   25.3213 C   0  0  0  0  0  0  0  0  0  0  0  0
   22.0519   18.7290   25.3689 H   0  0  0  0  0  0  0  0  0  0  0  0
   21.6801   17.0155   25.4076 H   0  0  0  0  0  0  0  0  0  0  0  0
   20.5290   18.0896   23.9381 C   0  0  0  0  0  0  0  0  0  0  0  0
   19.7014   17.3685   23.8977 H   0  0  0  0  0  0  0  0  0  0  0  0
   21.2566   17.7670   23.1831 H   0  0  0  0  0  0  0  0  0  0  0  0
   20.0071   19.5011   23.5752 C   0  0  0  0  0  0  0  0  0  0  0  0
   19.2313   19.7949   24.2927 H   0  0  0  0  0  0  0  0  0  0  0  0
   20.8177   20.2360   23.6734 H   0  0  0  0  0  0  0  0  0  0  0  0
   19.3944   19.5878   22.1566 C   0  0  0  0  0  0  0  0  0  0  0  0
   18.9023   20.5644   22.0521 H   0  0  0  0  0  0  0  0  0  0  0  0
   18.6059   18.8305   22.0490 H   0  0  0  0  0  0  0  0  0  0  0  0
   20.4315   19.4290   21.0215 C   0  0  0  0  0  0  0  0  0  0  0  0
   21.2480   20.1506   21.1622 H   0  0  0  0  0  0  0  0  0  0  0  0
   20.8798   18.4277   21.0531 H   0  0  0  0  0  0  0  0  0  0  0  0
   19.7902   19.6459   19.6359 C   0  0  0  0  0  0  0  0  0  0  0  0
   19.3650   20.6547   19.5527 H   0  0  0  0  0  0  0  0  0  0  0  0
   20.5377   19.5270   18.8408 H   0  0  0  0  0  0  0  0  0  0  0  0
   18.9868   18.9192   19.4573 H   0  0  0  0  0  0  0  0  0  0  0  0
  1  2  1  0  0  0  0
  1  3  2  0  0  0  0
  1  4  1  0  0  0  0
  4  5  1  0  0  0  0
  4  6  1  0  0  0  0
  4  7  1  0  0  0  0
  7  8  1  0  0  0  0
  7  9  1  0  0  0  0
  7 10  1  0  0  0  0
 10 11  1  0  0  0  0
 10 12  1  0  0  0  0
 10 13  1  0  0  0  0
 13 14  1  0  0  0  0
 13 15  1  0  0  0  0
 13 16  1  0  0  0  0
 16 17  1  0  0  0  0
 16 18  1  0  0  0  0
 16 19  1  0  0  0  0
 19 20  1  0  0  0  0
 19 21  1  0  0  0  0
 19 22  1  0  0  0  0
 22 23  1  0  0  0  0
 22 24  1  0  0  0  0
 22 25  1  0  0  0  0
M  END
> <VM2 Rank>
101

> <Conf_Id>
1010

> <Probability>
0.01

> <Sum Probability>
99.78

> <Delta G>
4.582

> <G>
-3.380

> <E>
-28.383

> <-TS>
25.003

> <U+W>
-48.951

> <U>
11.422

> <W>
-60.373

> <W(PB)>
-62.797

> <W(SA)>
2.424

> <Valence>
10.135

> <Coulomb>
0.369

> <VdW>
0.918

> <VdW6>
-10.483

> <VdW12>
11.400

> <Bond>
0.245

> <Angle>
3.539

> <Pdih>
6.346

> <Idih>
0.006

> <Tether>
0.000

$$$$
VeraChem MOL file


 25 24  0  0  0  0  0  0  0  0999 V2000     
   19.7417   19.0499   27.1274 C   0  0  0  0  0  0  0  0  0  0  0  0
   20.4433   18.5308   27.9729 O   0  5  0  0  0  0  0  0  0  0  0  0
   18.7172   19.6527   27.3803 O   0  0  0  0  0  0  0  0  0  0  0  0
   20.1834   18.9595   25.6712 C   0  0  0  0  0  0  0  0  0  0  0  0
   19.2798   18.9147   25.0527 H   0  0  0  0  0  0  0  0  0  0  0  0
   20.7232   18.0146   25.5370 H   0  0  0  0  0  0  0  0  0  0  0  0
   21.0740   20.1518   25.2392 C   0  0  0  0  0  0  0  0  0  0  0  0
   20.4944   21.0820   25.3162 H   0  0  0  0  0  0  0  0  0  0  0  0
   21.9046   20.2473   25.9523 H   0  0  0  0  0  0  0  0  0  0  0  0
   21.6631   20.0244   23.8117 C   0  0  0  0  0  0  0  0  0  0  0  0
   22.3230   19.1481   23.7517 H   0  0  0  0  0  0  0  0  0  0  0  0
   22.3091   20.8965   23.6413 H   0  0  0  0  0  0  0  0  0  0  0  0
   20.6048   19.9785   22.6804 C   0  0  0  0  0  0  0  0  0  0  0  0
   19.6930   20.5038   22.9956 H   0  0  0  0  0  0  0  0  0  0  0  0
   20.9987   20.5363   21.8208 H   0  0  0  0  0  0  0  0  0  0  0  0
   20.2665   18.5389   22.2189 C   0  0  0  0  0  0  0  0  0  0  0  0
   19.9905   17.9251   23.0843 H   0  0  0  0  0  0  0  0  0  0  0  0
   21.1626   18.0725   21.7875 H   0  0  0  0  0  0  0  0  0  0  0  0
   19.1113   18.4800   21.1925 C   0  0  0  0  0  0  0  0  0  0  0  0
   18.8657   17.4268   20.9983 H   0  0  0  0  0  0  0  0  0  0  0  0
   18.2088   18.9342   21.6244 H   0  0  0  0  0  0  0  0  0  0  0  0
   19.4478   19.1676   19.8515 C   0  0  0  0  0  0  0  0  0  0  0  0
   18.6334   19.0213   19.1302 H   0  0  0  0  0  0  0  0  0  0  0  0
   19.5876   20.2482   19.9796 H   0  0  0  0  0  0  0  0  0  0  0  0
   20.3647   18.7504   19.4152 H   0  0  0  0  0  0  0  0  0  0  0  0
  1  2  1  0  0  0  0
  1  3  2  0  0  0  0
  1  4  1  0  0  0  0
  4  5  1  0  0  0  0
  4  6  1  0  0  0  0
  4  7  1  0  0  0  0
  7  8  1  0  0  0  0
  7  9  1  0  0  0  0
  7 10  1  0  0  0  0
 10 11  1  0  0  0  0
 10 12  1  0  0  0  0
 10 13  1  0  0  0  0
 13 14  1  0  0  0  0
 13 15  1  0  0  0  0
 13 16  1  0  0  0  0
 16 17  1  0  0  0  0
 16 18  1  0  0  0  0
 16 19  1  0  0  0  0
 19 20  1  0  0  0  0
 19 21  1  0  0  0  0
 19 22  1  0  0  0  0
 22 23  1  0  0  0  0
 22 24  1  0  0  0  0
 22 25  1  0  0  0  0
M  END
> <VM2 Rank>
102

> <Conf_Id>
254

> <Probability>
0.01

> <Sum Probability>
99.79

> <Delta G>
4.639

> <G>
-3.323

> <E>
-28.244

> <-TS>
24.920

> <U+W>
-48.811

> <U>
10.710

> <W>
-59.521

> <W(PB)>
-61.961

> <W(SA)>
2.440

> <Valence>
11.065

> <Coulomb>
-1.442

> <VdW>
1.087

> <VdW6>
-9.992

> <VdW12>
11.079

> <Bond>
0.233

> <Angle>
3.172

> <Pdih>
7.658

> <Idih>
0.001

> <Tether>
0.000

$$$$
VeraChem MOL file


 25 24  0  0  0  0  0  0  0  0999 V2000     
   20.3865   19.7339   26.7372 C   0  0  0  0  0  0  0  0  0  0  0  0
   21.3224   20.4759   26.5121 O   0  5  0  0  0  0  0  0  0  0  0  0
   19.3517   20.0992   27.2601 O   0  0  0  0  0  0  0  0  0  0  0  0
   20.5469   18.2516   26.4048 C   0  0  0  0  0  0  0  0  0  0  0  0
   20.5092   17.7153   27.3600 H   0  0  0  0  0  0  0  0  0  0  0  0
   21.5490   18.0859   25.9910 H   0  0  0  0  0  0  0  0  0  0  0  0
   19.4676   17.6652   25.4519 C   0  0  0  0  0  0  0  0  0  0  0  0
   19.4680   16.5731   25.5696 H   0  0  0  0  0  0  0  0  0  0  0  0
   18.4694   18.0022   25.7642 H   0  0  0  0  0  0  0  0  0  0  0  0
   19.6890   17.9786   23.9513 C   0  0  0  0  0  0  0  0  0  0  0  0
   18.9620   17.3969   23.3683 H   0  0  0  0  0  0  0  0  0  0  0  0
   20.6834   17.6239   23.6501 H   0  0  0  0  0  0  0  0  0  0  0  0
   19.5311   19.4758   23.5925 C   0  0  0  0  0  0  0  0  0  0  0  0
   18.6101   19.8607   24.0514 H   0  0  0  0  0  0  0  0  0  0  0  0
   20.3595   20.0538   24.0214 H   0  0  0  0  0  0  0  0  0  0  0  0
   19.4708   19.7378   22.0688 C   0  0  0  0  0  0  0  0  0  0  0  0
   19.2559   20.8029   21.9068 H   0  0  0  0  0  0  0  0  0  0  0  0
   18.6301   19.1815   21.6323 H   0  0  0  0  0  0  0  0  0  0  0  0
   20.7780   19.3705   21.3307 C   0  0  0  0  0  0  0  0  0  0  0  0
   21.6256   19.8897   21.7989 H   0  0  0  0  0  0  0  0  0  0  0  0
   20.9725   18.2937   21.4208 H   0  0  0  0  0  0  0  0  0  0  0  0
   20.7089   19.7455   19.8366 C   0  0  0  0  0  0  0  0  0  0  0  0
   20.5527   20.8247   19.7088 H   0  0  0  0  0  0  0  0  0  0  0  0
   21.6429   19.4758   19.3266 H   0  0  0  0  0  0  0  0  0  0  0  0
   19.8855   19.2182   19.3373 H   0  0  0  0  0  0  0  0  0  0  0  0
  1  2  1  0  0  0  0
  1  3  2  0  0  0  0
  1  4  1  0  0  0  0
  4  5  1  0  0  0  0
  4  6  1  0  0  0  0
  4  7  1  0  0  0  0
  7  8  1  0  0  0  0
  7  9  1  0  0  0  0
  7 10  1  0  0  0  0
 10 11  1  0  0  0  0
 10 12  1  0  0  0  0
 10 13  1  0  0  0  0
 13 14  1  0  0  0  0
 13 15  1  0  0  0  0
 13 16  1  0  0  0  0
 16 17  1  0  0  0  0
 16 18  1  0  0  0  0
 16 19  1  0  0  0  0
 19 20  1  0  0  0  0
 19 21  1  0  0  0  0
 19 22  1  0  0  0  0
 22 23  1  0  0  0  0
 22 24  1  0  0  0  0
 22 25  1  0  0  0  0
M  END
> <VM2 Rank>
103

> <Conf_Id>
804

> <Probability>
0.01

> <Sum Probability>
99.80

> <Delta G>
4.640

> <G>
-3.322

> <E>
-28.509

> <-TS>
25.187

> <U+W>
-49.077

> <U>
11.400

> <W>
-60.476

> <W(PB)>
-62.899

> <W(SA)>
2.422

> <Valence>
9.920

> <Coulomb>
0.703

> <VdW>
0.777

> <VdW6>
-10.717

> <VdW12>
11.493

> <Bond>
0.235

> <Angle>
3.375

> <Pdih>
6.305

> <Idih>
0.006

> <Tether>
0.000

$$$$
VeraChem MOL file


 25 24  0  0  0  0  0  0  0  0999 V2000     
   20.3232   18.9306   26.8934 C   0  0  0  0  0  0  0  0  0  0  0  0
   21.4691   19.2390   27.1568 O   0  5  0  0  0  0  0  0  0  0  0  0
   19.9020   17.7927   26.9648 O   0  0  0  0  0  0  0  0  0  0  0  0
   19.3427   20.0387   26.5142 C   0  0  0  0  0  0  0  0  0  0  0  0
   19.2644   20.6927   27.3903 H   0  0  0  0  0  0  0  0  0  0  0  0
   18.3495   19.5996   26.3610 H   0  0  0  0  0  0  0  0  0  0  0  0
   19.7507   20.8931   25.2808 C   0  0  0  0  0  0  0  0  0  0  0  0
   19.2131   21.8491   25.3397 H   0  0  0  0  0  0  0  0  0  0  0  0
   20.8191   21.1443   25.3350 H   0  0  0  0  0  0  0  0  0  0  0  0
   19.4241   20.2543   23.9077 C   0  0  0  0  0  0  0  0  0  0  0  0
   19.5984   21.0158   23.1374 H   0  0  0  0  0  0  0  0  0  0  0  0
   18.3551   20.0062   23.8606 H   0  0  0  0  0  0  0  0  0  0  0  0
   20.2649   18.9959   23.5824 C   0  0  0  0  0  0  0  0  0  0  0  0
   21.3344   19.2234   23.6877 H   0  0  0  0  0  0  0  0  0  0  0  0
   20.0392   18.2115   24.3149 H   0  0  0  0  0  0  0  0  0  0  0  0
   19.9917   18.4173   22.1731 C   0  0  0  0  0  0  0  0  0  0  0  0
   18.9171   18.2206   22.0575 H   0  0  0  0  0  0  0  0  0  0  0  0
   20.4949   17.4438   22.0959 H   0  0  0  0  0  0  0  0  0  0  0  0
   20.4847   19.3248   21.0230 C   0  0  0  0  0  0  0  0  0  0  0  0
   19.9367   20.2758   21.0272 H   0  0  0  0  0  0  0  0  0  0  0  0
   21.5465   19.5659   21.1705 H   0  0  0  0  0  0  0  0  0  0  0  0
   20.2999   18.6476   19.6500 C   0  0  0  0  0  0  0  0  0  0  0  0
   20.8681   17.7098   19.5942 H   0  0  0  0  0  0  0  0  0  0  0  0
   19.2421   18.4193   19.4643 H   0  0  0  0  0  0  0  0  0  0  0  0
   20.6513   19.3048   18.8440 H   0  0  0  0  0  0  0  0  0  0  0  0
  1  2  1  0  0  0  0
  1  3  2  0  0  0  0
  1  4  1  0  0  0  0
  4  5  1  0  0  0  0
  4  6  1  0  0  0  0
  4  7  1  0  0  0  0
  7  8  1  0  0  0  0
  7  9  1  0  0  0  0
  7 10  1  0  0  0  0
 10 11  1  0  0  0  0
 10 12  1  0  0  0  0
 10 13  1  0  0  0  0
 13 14  1  0  0  0  0
 13 15  1  0  0  0  0
 13 16  1  0  0  0  0
 16 17  1  0  0  0  0
 16 18  1  0  0  0  0
 16 19  1  0  0  0  0
 19 20  1  0  0  0  0
 19 21  1  0  0  0  0
 19 22  1  0  0  0  0
 22 23  1  0  0  0  0
 22 24  1  0  0  0  0
 22 25  1  0  0  0  0
M  END
> <VM2 Rank>
104

> <Conf_Id>
121

> <Probability>
0.01

> <Sum Probability>
99.81

> <Delta G>
4.658

> <G>
-3.305

> <E>
-28.308

> <-TS>
25.003

> <U+W>
-48.875

> <U>
11.423

> <W>
-60.298

> <W(PB)>
-62.736

> <W(SA)>
2.438

> <Valence>
10.135

> <Coulomb>
0.370

> <VdW>
0.918

> <VdW6>
-10.483

> <VdW12>
11.400

> <Bond>
0.245

> <Angle>
3.539

> <Pdih>
6.346

> <Idih>
0.006

> <Tether>
0.000

$$$$
VeraChem MOL file


 25 24  0  0  0  0  0  0  0  0999 V2000     
   20.0106   19.4657   26.9807 C   0  0  0  0  0  0  0  0  0  0  0  0
   20.8993   19.9145   27.6780 O   0  5  0  0  0  0  0  0  0  0  0  0
   18.9167   19.9835   26.8698 O   0  0  0  0  0  0  0  0  0  0  0  0
   20.2750   18.1647   26.2280 C   0  0  0  0  0  0  0  0  0  0  0  0
   19.3176   17.7553   25.8869 H   0  0  0  0  0  0  0  0  0  0  0  0
   20.6778   17.4465   26.9516 H   0  0  0  0  0  0  0  0  0  0  0  0
   21.2671   18.3078   25.0412 C   0  0  0  0  0  0  0  0  0  0  0  0
   22.2370   18.6433   25.4337 H   0  0  0  0  0  0  0  0  0  0  0  0
   21.4415   17.3191   24.5958 H   0  0  0  0  0  0  0  0  0  0  0  0
   20.8122   19.2918   23.9351 C   0  0  0  0  0  0  0  0  0  0  0  0
   21.6284   19.3815   23.2072 H   0  0  0  0  0  0  0  0  0  0  0  0
   20.6671   20.2926   24.3643 H   0  0  0  0  0  0  0  0  0  0  0  0
   19.5207   18.8463   23.2064 C   0  0  0  0  0  0  0  0  0  0  0  0
   19.6564   17.8401   22.7893 H   0  0  0  0  0  0  0  0  0  0  0  0
   18.7030   18.7687   23.9343 H   0  0  0  0  0  0  0  0  0  0  0  0
   19.0690   19.8255   22.0932 C   0  0  0  0  0  0  0  0  0  0  0  0
   18.8565   20.8035   22.5462 H   0  0  0  0  0  0  0  0  0  0  0  0
   18.1152   19.4701   21.6803 H   0  0  0  0  0  0  0  0  0  0  0  0
   20.0721   20.0218   20.9293 C   0  0  0  0  0  0  0  0  0  0  0  0
   19.6400   20.7340   20.2129 H   0  0  0  0  0  0  0  0  0  0  0  0
   20.9954   20.4876   21.2978 H   0  0  0  0  0  0  0  0  0  0  0  0
   20.4102   18.7124   20.1843 C   0  0  0  0  0  0  0  0  0  0  0  0
   21.0464   18.9186   19.3140 H   0  0  0  0  0  0  0  0  0  0  0  0
   20.9519   18.0132   20.8338 H   0  0  0  0  0  0  0  0  0  0  0  0
   19.4982   18.2165   19.8276 H   0  0  0  0  0  0  0  0  0  0  0  0
  1  2  1  0  0  0  0
  1  3  2  0  0  0  0
  1  4  1  0  0  0  0
  4  5  1  0  0  0  0
  4  6  1  0  0  0  0
  4  7  1  0  0  0  0
  7  8  1  0  0  0  0
  7  9  1  0  0  0  0
  7 10  1  0  0  0  0
 10 11  1  0  0  0  0
 10 12  1  0  0  0  0
 10 13  1  0  0  0  0
 13 14  1  0  0  0  0
 13 15  1  0  0  0  0
 13 16  1  0  0  0  0
 16 17  1  0  0  0  0
 16 18  1  0  0  0  0
 16 19  1  0  0  0  0
 19 20  1  0  0  0  0
 19 21  1  0  0  0  0
 19 22  1  0  0  0  0
 22 23  1  0  0  0  0
 22 24  1  0  0  0  0
 22 25  1  0  0  0  0
M  END
> <VM2 Rank>
105

> <Conf_Id>
187

> <Probability>
0.01

> <Sum Probability>
99.82

> <Delta G>
4.660

> <G>
-3.302

> <E>
-28.505

> <-TS>
25.203

> <U+W>
-49.073

> <U>
11.036

> <W>
-60.109

> <W(PB)>
-62.507

> <W(SA)>
2.399

> <Valence>
9.325

> <Coulomb>
0.928

> <VdW>
0.783

> <VdW6>
-11.027

> <VdW12>
11.810

> <Bond>
0.268

> <Angle>
3.515

> <Pdih>
5.540

> <Idih>
0.001

> <Tether>
0.000

$$$$
VeraChem MOL file


 25 24  0  0  0  0  0  0  0  0999 V2000     
   20.5961   19.1040   27.1175 C   0  0  0  0  0  0  0  0  0  0  0  0
   21.5417   19.8317   27.3478 O   0  5  0  0  0  0  0  0  0  0  0  0
   19.9852   18.5017   27.9782 O   0  0  0  0  0  0  0  0  0  0  0  0
   20.1361   18.9565   25.6717 C   0  0  0  0  0  0  0  0  0  0  0  0
   19.7171   17.9508   25.5485 H   0  0  0  0  0  0  0  0  0  0  0  0
   21.0236   19.0254   25.0326 H   0  0  0  0  0  0  0  0  0  0  0  0
   19.0922   20.0261   25.2621 C   0  0  0  0  0  0  0  0  0  0  0  0
   18.2729   20.0170   25.9943 H   0  0  0  0  0  0  0  0  0  0  0  0
   19.5513   21.0222   25.3271 H   0  0  0  0  0  0  0  0  0  0  0  0
   18.4913   19.8233   23.8483 C   0  0  0  0  0  0  0  0  0  0  0  0
   17.7366   20.6065   23.6941 H   0  0  0  0  0  0  0  0  0  0  0  0
   17.9462   18.8705   23.8023 H   0  0  0  0  0  0  0  0  0  0  0  0
   19.5206   19.9098   22.6929 C   0  0  0  0  0  0  0  0  0  0  0  0
   19.0397   20.4121   21.8434 H   0  0  0  0  0  0  0  0  0  0  0  0
   20.3658   20.5466   22.9877 H   0  0  0  0  0  0  0  0  0  0  0  0
   20.0274   18.5238   22.2217 C   0  0  0  0  0  0  0  0  0  0  0  0
   19.1877   17.9473   21.8104 H   0  0  0  0  0  0  0  0  0  0  0  0
   20.3987   17.9511   23.0796 H   0  0  0  0  0  0  0  0  0  0  0  0
   21.1569   18.6098   21.1688 C   0  0  0  0  0  0  0  0  0  0  0  0
   22.0044   19.1750   21.5805 H   0  0  0  0  0  0  0  0  0  0  0  0
   21.5290   17.5958   20.9676 H   0  0  0  0  0  0  0  0  0  0  0  0
   20.7054   19.2473   19.8369 C   0  0  0  0  0  0  0  0  0  0  0  0
   20.4331   20.3018   19.9697 H   0  0  0  0  0  0  0  0  0  0  0  0
   21.5149   19.2041   19.0968 H   0  0  0  0  0  0  0  0  0  0  0  0
   19.8387   18.7169   19.4213 H   0  0  0  0  0  0  0  0  0  0  0  0
  1  2  1  0  0  0  0
  1  3  2  0  0  0  0
  1  4  1  0  0  0  0
  4  5  1  0  0  0  0
  4  6  1  0  0  0  0
  4  7  1  0  0  0  0
  7  8  1  0  0  0  0
  7  9  1  0  0  0  0
  7 10  1  0  0  0  0
 10 11  1  0  0  0  0
 10 12  1  0  0  0  0
 10 13  1  0  0  0  0
 13 14  1  0  0  0  0
 13 15  1  0  0  0  0
 13 16  1  0  0  0  0
 16 17  1  0  0  0  0
 16 18  1  0  0  0  0
 16 19  1  0  0  0  0
 19 20  1  0  0  0  0
 19 21  1  0  0  0  0
 19 22  1  0  0  0  0
 22 23  1  0  0  0  0
 22 24  1  0  0  0  0
 22 25  1  0  0  0  0
M  END
> <VM2 Rank>
106

> <Conf_Id>
503

> <Probability>
0.01

> <Sum Probability>
99.83

> <Delta G>
4.661

> <G>
-3.301

> <E>
-28.221

> <-TS>
24.920

> <U+W>
-48.788

> <U>
10.710

> <W>
-59.498

> <W(PB)>
-61.911

> <W(SA)>
2.413

> <Valence>
11.065

> <Coulomb>
-1.442

> <VdW>
1.087

> <VdW6>
-9.992

> <VdW12>
11.079

> <Bond>
0.233

> <Angle>
3.173

> <Pdih>
7.658

> <Idih>
0.001

> <Tether>
0.000

$$$$
VeraChem MOL file


 25 24  0  0  0  0  0  0  0  0999 V2000     
   19.5550   19.0629   26.5036 C   0  0  0  0  0  0  0  0  0  0  0  0
   19.5894   17.8574   26.6560 O   0  5  0  0  0  0  0  0  0  0  0  0
   18.5244   19.6927   26.3673 O   0  0  0  0  0  0  0  0  0  0  0  0
   20.8702   19.8381   26.5574 C   0  0  0  0  0  0  0  0  0  0  0  0
   21.2720   19.6933   27.5668 H   0  0  0  0  0  0  0  0  0  0  0  0
   20.6572   20.9091   26.4549 H   0  0  0  0  0  0  0  0  0  0  0  0
   21.9412   19.4002   25.5190 C   0  0  0  0  0  0  0  0  0  0  0  0
   22.9215   19.7416   25.8782 H   0  0  0  0  0  0  0  0  0  0  0  0
   21.9990   18.3035   25.4805 H   0  0  0  0  0  0  0  0  0  0  0  0
   21.7360   19.9714   24.0940 C   0  0  0  0  0  0  0  0  0  0  0  0
   22.6215   19.7204   23.4940 H   0  0  0  0  0  0  0  0  0  0  0  0
   21.6938   21.0682   24.1381 H   0  0  0  0  0  0  0  0  0  0  0  0
   20.4796   19.4316   23.3735 C   0  0  0  0  0  0  0  0  0  0  0  0
   20.4729   18.3353   23.4308 H   0  0  0  0  0  0  0  0  0  0  0  0
   19.5758   19.7872   23.8838 H   0  0  0  0  0  0  0  0  0  0  0  0
   20.4324   19.8839   21.8955 C   0  0  0  0  0  0  0  0  0  0  0  0
   21.3029   19.4845   21.3574 H   0  0  0  0  0  0  0  0  0  0  0  0
   20.5162   20.9785   21.8547 H   0  0  0  0  0  0  0  0  0  0  0  0
   19.1359   19.4628   21.1651 C   0  0  0  0  0  0  0  0  0  0  0  0
   18.2632   19.8672   21.6965 H   0  0  0  0  0  0  0  0  0  0  0  0
   19.1298   19.9191   20.1657 H   0  0  0  0  0  0  0  0  0  0  0  0
   18.9888   17.9330   21.0147 C   0  0  0  0  0  0  0  0  0  0  0  0
   18.8746   17.4443   21.9904 H   0  0  0  0  0  0  0  0  0  0  0  0
   18.1018   17.6897   20.4155 H   0  0  0  0  0  0  0  0  0  0  0  0
   19.8646   17.5014   20.5131 H   0  0  0  0  0  0  0  0  0  0  0  0
  1  2  1  0  0  0  0
  1  3  2  0  0  0  0
  1  4  1  0  0  0  0
  4  5  1  0  0  0  0
  4  6  1  0  0  0  0
  4  7  1  0  0  0  0
  7  8  1  0  0  0  0
  7  9  1  0  0  0  0
  7 10  1  0  0  0  0
 10 11  1  0  0  0  0
 10 12  1  0  0  0  0
 10 13  1  0  0  0  0
 13 14  1  0  0  0  0
 13 15  1  0  0  0  0
 13 16  1  0  0  0  0
 16 17  1  0  0  0  0
 16 18  1  0  0  0  0
 16 19  1  0  0  0  0
 19 20  1  0  0  0  0
 19 21  1  0  0  0  0
 19 22  1  0  0  0  0
 22 23  1  0  0  0  0
 22 24  1  0  0  0  0
 22 25  1  0  0  0  0
M  END
> <VM2 Rank>
107

> <Conf_Id>
227

> <Probability>
0.01

> <Sum Probability>
99.84

> <Delta G>
4.663

> <G>
-3.300

> <E>
-28.441

> <-TS>
25.141

> <U+W>
-49.009

> <U>
12.313

> <W>
-61.322

> <W(PB)>
-63.723

> <W(SA)>
2.402

> <Valence>
9.950

> <Coulomb>
1.612

> <VdW>
0.751

> <VdW6>
-10.687

> <VdW12>
11.438

> <Bond>
0.232

> <Angle>
3.418

> <Pdih>
6.293

> <Idih>
0.007

> <Tether>
0.000

$$$$
VeraChem MOL file


 25 24  0  0  0  0  0  0  0  0999 V2000     
   19.9750   19.5456   27.3778 C   0  0  0  0  0  0  0  0  0  0  0  0
   21.0424   19.6481   27.9496 O   0  5  0  0  0  0  0  0  0  0  0  0
   18.9289   19.2980   27.9446 O   0  0  0  0  0  0  0  0  0  0  0  0
   19.9504   19.7142   25.8629 C   0  0  0  0  0  0  0  0  0  0  0  0
   20.7198   20.4477   25.5962 H   0  0  0  0  0  0  0  0  0  0  0  0
   18.9807   20.1433   25.5840 H   0  0  0  0  0  0  0  0  0  0  0  0
   20.1825   18.3802   25.1070 C   0  0  0  0  0  0  0  0  0  0  0  0
   21.1737   17.9811   25.3630 H   0  0  0  0  0  0  0  0  0  0  0  0
   19.4501   17.6413   25.4606 H   0  0  0  0  0  0  0  0  0  0  0  0
   20.0525   18.5124   23.5709 C   0  0  0  0  0  0  0  0  0  0  0  0
   19.0513   18.8910   23.3275 H   0  0  0  0  0  0  0  0  0  0  0  0
   20.1311   17.5117   23.1248 H   0  0  0  0  0  0  0  0  0  0  0  0
   21.1260   19.4321   22.9428 C   0  0  0  0  0  0  0  0  0  0  0  0
   20.9587   20.4695   23.2607 H   0  0  0  0  0  0  0  0  0  0  0  0
   22.1125   19.1443   23.3308 H   0  0  0  0  0  0  0  0  0  0  0  0
   21.1788   19.3809   21.3951 C   0  0  0  0  0  0  0  0  0  0  0  0
   21.4291   18.3655   21.0588 H   0  0  0  0  0  0  0  0  0  0  0  0
   22.0153   20.0161   21.0731 H   0  0  0  0  0  0  0  0  0  0  0  0
   19.8953   19.8807   20.6857 C   0  0  0  0  0  0  0  0  0  0  0  0
   19.3842   20.6296   21.3063 H   0  0  0  0  0  0  0  0  0  0  0  0
   20.1854   20.3975   19.7604 H   0  0  0  0  0  0  0  0  0  0  0  0
   18.9212   18.7419   20.3095 C   0  0  0  0  0  0  0  0  0  0  0  0
   18.5668   18.1987   21.1926 H   0  0  0  0  0  0  0  0  0  0  0  0
   18.0423   19.1451   19.7901 H   0  0  0  0  0  0  0  0  0  0  0  0
   19.4050   18.0199   19.6390 H   0  0  0  0  0  0  0  0  0  0  0  0
  1  2  1  0  0  0  0
  1  3  2  0  0  0  0
  1  4  1  0  0  0  0
  4  5  1  0  0  0  0
  4  6  1  0  0  0  0
  4  7  1  0  0  0  0
  7  8  1  0  0  0  0
  7  9  1  0  0  0  0
  7 10  1  0  0  0  0
 10 11  1  0  0  0  0
 10 12  1  0  0  0  0
 10 13  1  0  0  0  0
 13 14  1  0  0  0  0
 13 15  1  0  0  0  0
 13 16  1  0  0  0  0
 16 17  1  0  0  0  0
 16 18  1  0  0  0  0
 16 19  1  0  0  0  0
 19 20  1  0  0  0  0
 19 21  1  0  0  0  0
 19 22  1  0  0  0  0
 22 23  1  0  0  0  0
 22 24  1  0  0  0  0
 22 25  1  0  0  0  0
M  END
> <VM2 Rank>
108

> <Conf_Id>
502

> <Probability>
0.01

> <Sum Probability>
99.85

> <Delta G>
4.697

> <G>
-3.265

> <E>
-28.121

> <-TS>
24.856

> <U+W>
-48.689

> <U>
10.438

> <W>
-59.127

> <W(PB)>
-61.577

> <W(SA)>
2.450

> <Valence>
10.999

> <Coulomb>
-1.665

> <VdW>
1.104

> <VdW6>
-9.904

> <VdW12>
11.008

> <Bond>
0.232

> <Angle>
3.215

> <Pdih>
7.551

> <Idih>
0.001

> <Tether>
0.000

$$$$
VeraChem MOL file


 25 24  0  0  0  0  0  0  0  0999 V2000     
   20.1395   18.8942   27.2557 C   0  0  0  0  0  0  0  0  0  0  0  0
   21.1652   18.6171   27.8455 O   0  5  0  0  0  0  0  0  0  0  0  0
   19.1047   19.2025   27.8133 O   0  0  0  0  0  0  0  0  0  0  0  0
   20.1583   18.8758   25.7314 C   0  0  0  0  0  0  0  0  0  0  0  0
   19.1639   18.5678   25.3898 H   0  0  0  0  0  0  0  0  0  0  0  0
   20.8668   18.1033   25.4094 H   0  0  0  0  0  0  0  0  0  0  0  0
   20.5476   20.2468   25.1198 C   0  0  0  0  0  0  0  0  0  0  0  0
   19.8058   21.0035   25.4104 H   0  0  0  0  0  0  0  0  0  0  0  0
   21.5044   20.5672   25.5549 H   0  0  0  0  0  0  0  0  0  0  0  0
   20.6899   20.2156   23.5795 C   0  0  0  0  0  0  0  0  0  0  0  0
   21.4335   19.4599   23.3001 H   0  0  0  0  0  0  0  0  0  0  0  0
   21.0959   21.1813   23.2493 H   0  0  0  0  0  0  0  0  0  0  0  0
   19.3503   19.9598   22.8444 C   0  0  0  0  0  0  0  0  0  0  0  0
   18.9145   18.9991   23.1467 H   0  0  0  0  0  0  0  0  0  0  0  0
   18.6359   20.7332   23.1576 H   0  0  0  0  0  0  0  0  0  0  0  0
   19.4805   20.0079   21.3005 C   0  0  0  0  0  0  0  0  0  0  0  0
   20.2966   20.6820   21.0067 H   0  0  0  0  0  0  0  0  0  0  0  0
   18.5633   20.4559   20.8944 H   0  0  0  0  0  0  0  0  0  0  0  0
   19.6627   18.6265   20.6239 C   0  0  0  0  0  0  0  0  0  0  0  0
   18.7943   17.9909   20.8454 H   0  0  0  0  0  0  0  0  0  0  0  0
   19.6683   18.7700   19.5346 H   0  0  0  0  0  0  0  0  0  0  0  0
   20.9543   17.8878   21.0320 C   0  0  0  0  0  0  0  0  0  0  0  0
   21.8359   18.5253   20.8865 H   0  0  0  0  0  0  0  0  0  0  0  0
   20.9167   17.5778   22.0837 H   0  0  0  0  0  0  0  0  0  0  0  0
   21.0866   16.9826   20.4255 H   0  0  0  0  0  0  0  0  0  0  0  0
  1  2  1  0  0  0  0
  1  3  2  0  0  0  0
  1  4  1  0  0  0  0
  4  5  1  0  0  0  0
  4  6  1  0  0  0  0
  4  7  1  0  0  0  0
  7  8  1  0  0  0  0
  7  9  1  0  0  0  0
  7 10  1  0  0  0  0
 10 11  1  0  0  0  0
 10 12  1  0  0  0  0
 10 13  1  0  0  0  0
 13 14  1  0  0  0  0
 13 15  1  0  0  0  0
 13 16  1  0  0  0  0
 16 17  1  0  0  0  0
 16 18  1  0  0  0  0
 16 19  1  0  0  0  0
 19 20  1  0  0  0  0
 19 21  1  0  0  0  0
 19 22  1  0  0  0  0
 22 23  1  0  0  0  0
 22 24  1  0  0  0  0
 22 25  1  0  0  0  0
M  END
> <VM2 Rank>
109

> <Conf_Id>
533

> <Probability>
0.01

> <Sum Probability>
99.86

> <Delta G>
4.713

> <G>
-3.249

> <E>
-28.060

> <-TS>
24.811

> <U+W>
-48.627

> <U>
10.664

> <W>
-59.291

> <W(PB)>
-61.726

> <W(SA)>
2.435

> <Valence>
11.014

> <Coulomb>
-1.402

> <VdW>
1.052

> <VdW6>
-9.993

> <VdW12>
11.045

> <Bond>
0.241

> <Angle>
3.227

> <Pdih>
7.545

> <Idih>
0.001

> <Tether>
0.000

$$$$
VeraChem MOL file


 25 24  0  0  0  0  0  0  0  0999 V2000     
   20.2240   18.8996   27.2548 C   0  0  0  0  0  0  0  0  0  0  0  0
   21.2244   19.3364   27.7889 O   0  5  0  0  0  0  0  0  0  0  0  0
   19.2552   18.4966   27.8677 O   0  0  0  0  0  0  0  0  0  0  0  0
   20.1726   18.8767   25.7314 C   0  0  0  0  0  0  0  0  0  0  0  0
   19.5599   18.0206   25.4246 H   0  0  0  0  0  0  0  0  0  0  0  0
   21.1898   18.6959   25.3665 H   0  0  0  0  0  0  0  0  0  0  0  0
   19.5998   20.1868   25.1308 C   0  0  0  0  0  0  0  0  0  0  0  0
   18.6205   20.3847   25.5881 H   0  0  0  0  0  0  0  0  0  0  0  0
   20.2467   21.0314   25.4053 H   0  0  0  0  0  0  0  0  0  0  0  0
   19.4272   20.1355   23.5941 C   0  0  0  0  0  0  0  0  0  0  0  0
   18.8953   21.0419   23.2746 H   0  0  0  0  0  0  0  0  0  0  0  0
   18.7786   19.2918   23.3307 H   0  0  0  0  0  0  0  0  0  0  0  0
   20.7712   20.0495   22.8280 C   0  0  0  0  0  0  0  0  0  0  0  0
   21.3895   20.9071   23.1261 H   0  0  0  0  0  0  0  0  0  0  0  0
   21.3312   19.1517   23.1189 H   0  0  0  0  0  0  0  0  0  0  0  0
   20.6006   20.0788   21.2876 C   0  0  0  0  0  0  0  0  0  0  0  0
   21.4445   20.6381   20.8613 H   0  0  0  0  0  0  0  0  0  0  0  0
   19.6996   20.6443   21.0137 H   0  0  0  0  0  0  0  0  0  0  0  0
   20.5783   18.6846   20.6132 C   0  0  0  0  0  0  0  0  0  0  0  0
   20.5297   18.8248   19.5246 H   0  0  0  0  0  0  0  0  0  0  0  0
   21.5247   18.1637   20.8138 H   0  0  0  0  0  0  0  0  0  0  0  0
   19.3998   17.7896   21.0496 C   0  0  0  0  0  0  0  0  0  0  0  0
   18.4418   18.3109   20.9253 H   0  0  0  0  0  0  0  0  0  0  0  0
   19.3686   16.8741   20.4449 H   0  0  0  0  0  0  0  0  0  0  0  0
   19.5001   17.4882   22.0997 H   0  0  0  0  0  0  0  0  0  0  0  0
  1  2  1  0  0  0  0
  1  3  2  0  0  0  0
  1  4  1  0  0  0  0
  4  5  1  0  0  0  0
  4  6  1  0  0  0  0
  4  7  1  0  0  0  0
  7  8  1  0  0  0  0
  7  9  1  0  0  0  0
  7 10  1  0  0  0  0
 10 11  1  0  0  0  0
 10 12  1  0  0  0  0
 10 13  1  0  0  0  0
 13 14  1  0  0  0  0
 13 15  1  0  0  0  0
 13 16  1  0  0  0  0
 16 17  1  0  0  0  0
 16 18  1  0  0  0  0
 16 19  1  0  0  0  0
 19 20  1  0  0  0  0
 19 21  1  0  0  0  0
 19 22  1  0  0  0  0
 22 23  1  0  0  0  0
 22 24  1  0  0  0  0
 22 25  1  0  0  0  0
M  END
> <VM2 Rank>
110

> <Conf_Id>
506

> <Probability>
0.01

> <Sum Probability>
99.87

> <Delta G>
4.730

> <G>
-3.232

> <E>
-28.043

> <-TS>
24.811

> <U+W>
-48.610

> <U>
10.664

> <W>
-59.274

> <W(PB)>
-61.731

> <W(SA)>
2.457

> <Valence>
11.014

> <Coulomb>
-1.402

> <VdW>
1.052

> <VdW6>
-9.993

> <VdW12>
11.045

> <Bond>
0.241

> <Angle>
3.227

> <Pdih>
7.545

> <Idih>
0.001

> <Tether>
0.000

$$$$
VeraChem MOL file


 25 24  0  0  0  0  0  0  0  0999 V2000     
   20.2857   19.3836   27.4307 C   0  0  0  0  0  0  0  0  0  0  0  0
   21.3737   19.8513   27.7032 O   0  5  0  0  0  0  0  0  0  0  0  0
   19.6247   18.7210   28.2057 O   0  0  0  0  0  0  0  0  0  0  0  0
   19.7295   19.6217   26.0314 C   0  0  0  0  0  0  0  0  0  0  0  0
   20.0729   20.6081   25.6999 H   0  0  0  0  0  0  0  0  0  0  0  0
   18.6361   19.6639   26.1026 H   0  0  0  0  0  0  0  0  0  0  0  0
   20.1582   18.5258   25.0213 C   0  0  0  0  0  0  0  0  0  0  0  0
   21.2526   18.5245   24.9241 H   0  0  0  0  0  0  0  0  0  0  0  0
   19.8820   17.5432   25.4284 H   0  0  0  0  0  0  0  0  0  0  0  0
   19.5108   18.6833   23.6248 C   0  0  0  0  0  0  0  0  0  0  0  0
   18.4169   18.6672   23.7243 H   0  0  0  0  0  0  0  0  0  0  0  0
   19.7746   17.8067   23.0214 H   0  0  0  0  0  0  0  0  0  0  0  0
   19.9440   19.9759   22.8893 C   0  0  0  0  0  0  0  0  0  0  0  0
   19.5603   20.8406   23.4459 H   0  0  0  0  0  0  0  0  0  0  0  0
   21.0385   20.0689   22.8921 H   0  0  0  0  0  0  0  0  0  0  0  0
   19.4077   20.0610   21.4375 C   0  0  0  0  0  0  0  0  0  0  0  0
   19.1534   21.1090   21.2280 H   0  0  0  0  0  0  0  0  0  0  0  0
   18.4667   19.5016   21.3455 H   0  0  0  0  0  0  0  0  0  0  0  0
   20.4106   19.5989   20.3515 C   0  0  0  0  0  0  0  0  0  0  0  0
   19.9635   19.7788   19.3641 H   0  0  0  0  0  0  0  0  0  0  0  0
   21.3147   20.2216   20.3972 H   0  0  0  0  0  0  0  0  0  0  0  0
   20.8082   18.1115   20.4506 C   0  0  0  0  0  0  0  0  0  0  0  0
   19.9203   17.4662   20.4611 H   0  0  0  0  0  0  0  0  0  0  0  0
   21.4275   17.8215   19.5919 H   0  0  0  0  0  0  0  0  0  0  0  0
   21.3914   17.9176   21.3595 H   0  0  0  0  0  0  0  0  0  0  0  0
  1  2  1  0  0  0  0
  1  3  2  0  0  0  0
  1  4  1  0  0  0  0
  4  5  1  0  0  0  0
  4  6  1  0  0  0  0
  4  7  1  0  0  0  0
  7  8  1  0  0  0  0
  7  9  1  0  0  0  0
  7 10  1  0  0  0  0
 10 11  1  0  0  0  0
 10 12  1  0  0  0  0
 10 13  1  0  0  0  0
 13 14  1  0  0  0  0
 13 15  1  0  0  0  0
 13 16  1  0  0  0  0
 16 17  1  0  0  0  0
 16 18  1  0  0  0  0
 16 19  1  0  0  0  0
 19 20  1  0  0  0  0
 19 21  1  0  0  0  0
 19 22  1  0  0  0  0
 22 23  1  0  0  0  0
 22 24  1  0  0  0  0
 22 25  1  0  0  0  0
M  END
> <VM2 Rank>
111

> <Conf_Id>
148

> <Probability>
0.01

> <Sum Probability>
99.87

> <Delta G>
4.780

> <G>
-3.182

> <E>
-28.064

> <-TS>
24.882

> <U+W>
-48.631

> <U>
10.553

> <W>
-59.185

> <W(PB)>
-61.627

> <W(SA)>
2.443

> <Valence>
11.068

> <Coulomb>
-1.642

> <VdW>
1.127

> <VdW6>
-9.885

> <VdW12>
11.012

> <Bond>
0.238

> <Angle>
3.177

> <Pdih>
7.653

> <Idih>
0.001

> <Tether>
0.000

$$$$
VeraChem MOL file


 25 24  0  0  0  0  0  0  0  0999 V2000     
   20.2127   19.2623   27.4701 C   0  0  0  0  0  0  0  0  0  0  0  0
   21.2762   19.2320   28.0574 O   0  5  0  0  0  0  0  0  0  0  0  0
   19.1798   19.6639   27.9687 O   0  0  0  0  0  0  0  0  0  0  0  0
   20.1773   18.7919   26.0204 C   0  0  0  0  0  0  0  0  0  0  0  0
   19.1957   18.3393   25.8420 H   0  0  0  0  0  0  0  0  0  0  0  0
   20.9273   18.0008   25.9016 H   0  0  0  0  0  0  0  0  0  0  0  0
   20.4455   19.9391   25.0116 C   0  0  0  0  0  0  0  0  0  0  0  0
   19.6616   20.7033   25.1057 H   0  0  0  0  0  0  0  0  0  0  0  0
   21.3904   20.4300   25.2830 H   0  0  0  0  0  0  0  0  0  0  0  0
   20.5409   19.4645   23.5417 C   0  0  0  0  0  0  0  0  0  0  0  0
   21.3078   18.6829   23.4546 H   0  0  0  0  0  0  0  0  0  0  0  0
   20.8836   20.3128   22.9359 H   0  0  0  0  0  0  0  0  0  0  0  0
   19.1979   18.9490   22.9717 C   0  0  0  0  0  0  0  0  0  0  0  0
   18.8128   18.1442   23.6100 H   0  0  0  0  0  0  0  0  0  0  0  0
   18.4530   19.7555   23.0084 H   0  0  0  0  0  0  0  0  0  0  0  0
   19.2909   18.4004   21.5253 C   0  0  0  0  0  0  0  0  0  0  0  0
   18.2978   18.0175   21.2533 H   0  0  0  0  0  0  0  0  0  0  0  0
   19.9632   17.5321   21.4951 H   0  0  0  0  0  0  0  0  0  0  0  0
   19.7130   19.4434   20.4604 C   0  0  0  0  0  0  0  0  0  0  0  0
   19.1481   19.2522   19.5375 H   0  0  0  0  0  0  0  0  0  0  0  0
   19.4329   20.4550   20.7852 H   0  0  0  0  0  0  0  0  0  0  0  0
   21.2188   19.3875   20.1188 C   0  0  0  0  0  0  0  0  0  0  0  0
   21.4915   18.4024   19.7185 H   0  0  0  0  0  0  0  0  0  0  0  0
   21.4684   20.1392   19.3589 H   0  0  0  0  0  0  0  0  0  0  0  0
   21.8442   19.5794   20.9981 H   0  0  0  0  0  0  0  0  0  0  0  0
  1  2  1  0  0  0  0
  1  3  2  0  0  0  0
  1  4  1  0  0  0  0
  4  5  1  0  0  0  0
  4  6  1  0  0  0  0
  4  7  1  0  0  0  0
  7  8  1  0  0  0  0
  7  9  1  0  0  0  0
  7 10  1  0  0  0  0
 10 11  1  0  0  0  0
 10 12  1  0  0  0  0
 10 13  1  0  0  0  0
 13 14  1  0  0  0  0
 13 15  1  0  0  0  0
 13 16  1  0  0  0  0
 16 17  1  0  0  0  0
 16 18  1  0  0  0  0
 16 19  1  0  0  0  0
 19 20  1  0  0  0  0
 19 21  1  0  0  0  0
 19 22  1  0  0  0  0
 22 23  1  0  0  0  0
 22 24  1  0  0  0  0
 22 25  1  0  0  0  0
M  END
> <VM2 Rank>
112

> <Conf_Id>
157

> <Probability>
0.01

> <Sum Probability>
99.88

> <Delta G>
4.856

> <G>
-3.107

> <E>
-27.897

> <-TS>
24.790

> <U+W>
-48.464

> <U>
10.617

> <W>
-59.082

> <W(PB)>
-61.516

> <W(SA)>
2.434

> <Valence>
11.188

> <Coulomb>
-1.778

> <VdW>
1.208

> <VdW6>
-9.786

> <VdW12>
10.993

> <Bond>
0.241

> <Angle>
3.293

> <Pdih>
7.653

> <Idih>
0.001

> <Tether>
0.000

$$$$
VeraChem MOL file


 25 24  0  0  0  0  0  0  0  0999 V2000     
   20.2472   19.3778   27.4665 C   0  0  0  0  0  0  0  0  0  0  0  0
   21.1631   18.8535   28.0690 O   0  5  0  0  0  0  0  0  0  0  0  0
   19.1718   19.6370   27.9695 O   0  0  0  0  0  0  0  0  0  0  0  0
   20.4508   19.7072   25.9920 C   0  0  0  0  0  0  0  0  0  0  0  0
   21.5095   19.9495   25.8411 H   0  0  0  0  0  0  0  0  0  0  0  0
   19.8750   20.6127   25.7715 H   0  0  0  0  0  0  0  0  0  0  0  0
   20.0290   18.5454   25.0549 C   0  0  0  0  0  0  0  0  0  0  0  0
   20.5548   17.6333   25.3698 H   0  0  0  0  0  0  0  0  0  0  0  0
   18.9562   18.3428   25.1789 H   0  0  0  0  0  0  0  0  0  0  0  0
   20.3440   18.8054   23.5622 C   0  0  0  0  0  0  0  0  0  0  0  0
   20.1553   17.8752   23.0116 H   0  0  0  0  0  0  0  0  0  0  0  0
   21.4122   19.0323   23.4438 H   0  0  0  0  0  0  0  0  0  0  0  0
   19.4938   19.9393   22.9409 C   0  0  0  0  0  0  0  0  0  0  0  0
   18.4295   19.6767   23.0108 H   0  0  0  0  0  0  0  0  0  0  0  0
   19.6237   20.8583   23.5258 H   0  0  0  0  0  0  0  0  0  0  0  0
   19.8477   20.2638   21.4675 C   0  0  0  0  0  0  0  0  0  0  0  0
   20.8853   20.6181   21.3993 H   0  0  0  0  0  0  0  0  0  0  0  0
   19.2225   21.1122   21.1573 H   0  0  0  0  0  0  0  0  0  0  0  0
   19.6108   19.1014   20.4710 C   0  0  0  0  0  0  0  0  0  0  0  0
   18.8276   18.4293   20.8480 H   0  0  0  0  0  0  0  0  0  0  0  0
   19.2276   19.5181   19.5293 H   0  0  0  0  0  0  0  0  0  0  0  0
   20.8948   18.3032   20.1524 C   0  0  0  0  0  0  0  0  0  0  0  0
   21.3277   17.8504   21.0517 H   0  0  0  0  0  0  0  0  0  0  0  0
   20.6786   17.4959   19.4410 H   0  0  0  0  0  0  0  0  0  0  0  0
   21.6560   18.9530   19.7014 H   0  0  0  0  0  0  0  0  0  0  0  0
  1  2  1  0  0  0  0
  1  3  2  0  0  0  0
  1  4  1  0  0  0  0
  4  5  1  0  0  0  0
  4  6  1  0  0  0  0
  4  7  1  0  0  0  0
  7  8  1  0  0  0  0
  7  9  1  0  0  0  0
  7 10  1  0  0  0  0
 10 11  1  0  0  0  0
 10 12  1  0  0  0  0
 10 13  1  0  0  0  0
 13 14  1  0  0  0  0
 13 15  1  0  0  0  0
 13 16  1  0  0  0  0
 16 17  1  0  0  0  0
 16 18  1  0  0  0  0
 16 19  1  0  0  0  0
 19 20  1  0  0  0  0
 19 21  1  0  0  0  0
 19 22  1  0  0  0  0
 22 23  1  0  0  0  0
 22 24  1  0  0  0  0
 22 25  1  0  0  0  0
M  END
> <VM2 Rank>
113

> <Conf_Id>
216

> <Probability>
0.01

> <Sum Probability>
99.89

> <Delta G>
4.876

> <G>
-3.087

> <E>
-27.877

> <-TS>
24.790

> <U+W>
-48.444

> <U>
10.617

> <W>
-59.062

> <W(PB)>
-61.493

> <W(SA)>
2.432

> <Valence>
11.188

> <Coulomb>
-1.778

> <VdW>
1.208

> <VdW6>
-9.786

> <VdW12>
10.993

> <Bond>
0.241

> <Angle>
3.293

> <Pdih>
7.653

> <Idih>
0.001

> <Tether>
0.000

$$$$
VeraChem MOL file


 25 24  0  0  0  0  0  0  0  0999 V2000     
   19.6873   19.2601   27.1265 C   0  0  0  0  0  0  0  0  0  0  0  0
   20.2857   19.0607   28.1653 O   0  5  0  0  0  0  0  0  0  0  0  0
   18.6720   19.9235   27.0510 O   0  0  0  0  0  0  0  0  0  0  0  0
   20.2535   18.6620   25.8439 C   0  0  0  0  0  0  0  0  0  0  0  0
   19.4130   18.4269   25.1833 H   0  0  0  0  0  0  0  0  0  0  0  0
   20.7346   17.7101   26.0982 H   0  0  0  0  0  0  0  0  0  0  0  0
   21.2708   19.6005   25.1424 C   0  0  0  0  0  0  0  0  0  0  0  0
   20.8145   20.5824   24.9555 H   0  0  0  0  0  0  0  0  0  0  0  0
   22.1026   19.7782   25.8381 H   0  0  0  0  0  0  0  0  0  0  0  0
   21.8403   19.0135   23.8258 C   0  0  0  0  0  0  0  0  0  0  0  0
   21.8281   17.9155   23.8615 H   0  0  0  0  0  0  0  0  0  0  0  0
   22.8992   19.2974   23.7546 H   0  0  0  0  0  0  0  0  0  0  0  0
   21.1374   19.5100   22.5372 C   0  0  0  0  0  0  0  0  0  0  0  0
   21.2455   20.6004   22.4603 H   0  0  0  0  0  0  0  0  0  0  0  0
   21.6730   19.0860   21.6787 H   0  0  0  0  0  0  0  0  0  0  0  0
   19.6383   19.1364   22.4464 C   0  0  0  0  0  0  0  0  0  0  0  0
   19.0978   19.6235   23.2680 H   0  0  0  0  0  0  0  0  0  0  0  0
   19.5148   18.0535   22.5826 H   0  0  0  0  0  0  0  0  0  0  0  0
   18.9743   19.5715   21.1190 C   0  0  0  0  0  0  0  0  0  0  0  0
   17.8900   19.4139   21.2013 H   0  0  0  0  0  0  0  0  0  0  0  0
   19.1198   20.6498   20.9666 H   0  0  0  0  0  0  0  0  0  0  0  0
   19.4935   18.7959   19.8885 C   0  0  0  0  0  0  0  0  0  0  0  0
   19.3888   17.7129   20.0339 H   0  0  0  0  0  0  0  0  0  0  0  0
   18.9231   19.0728   18.9924 H   0  0  0  0  0  0  0  0  0  0  0  0
   20.5494   19.0165   19.6897 H   0  0  0  0  0  0  0  0  0  0  0  0
  1  2  1  0  0  0  0
  1  3  2  0  0  0  0
  1  4  1  0  0  0  0
  4  5  1  0  0  0  0
  4  6  1  0  0  0  0
  4  7  1  0  0  0  0
  7  8  1  0  0  0  0
  7  9  1  0  0  0  0
  7 10  1  0  0  0  0
 10 11  1  0  0  0  0
 10 12  1  0  0  0  0
 10 13  1  0  0  0  0
 13 14  1  0  0  0  0
 13 15  1  0  0  0  0
 13 16  1  0  0  0  0
 16 17  1  0  0  0  0
 16 18  1  0  0  0  0
 16 19  1  0  0  0  0
 19 20  1  0  0  0  0
 19 21  1  0  0  0  0
 19 22  1  0  0  0  0
 22 23  1  0  0  0  0
 22 24  1  0  0  0  0
 22 25  1  0  0  0  0
M  END
> <VM2 Rank>
114

> <Conf_Id>
1038

> <Probability>
0.01

> <Sum Probability>
99.89

> <Delta G>
4.887

> <G>
-3.075

> <E>
-27.928

> <-TS>
24.853

> <U+W>
-48.496

> <U>
10.982

> <W>
-59.478

> <W(PB)>
-61.937

> <W(SA)>
2.459

> <Valence>
11.160

> <Coulomb>
-1.272

> <VdW>
1.094

> <VdW6>
-9.961

> <VdW12>
11.055

> <Bond>
0.244

> <Angle>
3.277

> <Pdih>
7.638

> <Idih>
0.001

> <Tether>
0.000

$$$$
VeraChem MOL file


 25 24  0  0  0  0  0  0  0  0999 V2000     
   20.1221   19.7907   27.1376 C   0  0  0  0  0  0  0  0  0  0  0  0
   21.1705   20.3476   27.3972 O   0  5  0  0  0  0  0  0  0  0  0  0
   19.0381   20.1822   27.5231 O   0  0  0  0  0  0  0  0  0  0  0  0
   20.1674   18.5417   26.2646 C   0  0  0  0  0  0  0  0  0  0  0  0
   19.3510   17.8790   26.5759 H   0  0  0  0  0  0  0  0  0  0  0  0
   21.1080   18.0166   26.4696 H   0  0  0  0  0  0  0  0  0  0  0  0
   20.0520   18.8606   24.7537 C   0  0  0  0  0  0  0  0  0  0  0  0
   19.1090   19.3922   24.5652 H   0  0  0  0  0  0  0  0  0  0  0  0
   20.8686   19.5384   24.4726 H   0  0  0  0  0  0  0  0  0  0  0  0
   20.1119   17.5808   23.8900 C   0  0  0  0  0  0  0  0  0  0  0  0
   19.3654   16.8650   24.2603 H   0  0  0  0  0  0  0  0  0  0  0  0
   21.0909   17.0989   24.0176 H   0  0  0  0  0  0  0  0  0  0  0  0
   19.8483   17.8212   22.3823 C   0  0  0  0  0  0  0  0  0  0  0  0
   19.8588   16.8418   21.8850 H   0  0  0  0  0  0  0  0  0  0  0  0
   18.8338   18.2140   22.2414 H   0  0  0  0  0  0  0  0  0  0  0  0
   20.8950   18.7277   21.6812 C   0  0  0  0  0  0  0  0  0  0  0  0
   21.0770   18.3426   20.6686 H   0  0  0  0  0  0  0  0  0  0  0  0
   21.8571   18.6472   22.2053 H   0  0  0  0  0  0  0  0  0  0  0  0
   20.4908   20.2189   21.5683 C   0  0  0  0  0  0  0  0  0  0  0  0
   20.1943   20.6146   22.5474 H   0  0  0  0  0  0  0  0  0  0  0  0
   21.3709   20.7976   21.2561 H   0  0  0  0  0  0  0  0  0  0  0  0
   19.3569   20.4627   20.5480 C   0  0  0  0  0  0  0  0  0  0  0  0
   19.6337   20.0842   19.5554 H   0  0  0  0  0  0  0  0  0  0  0  0
   18.4253   19.9716   20.8541 H   0  0  0  0  0  0  0  0  0  0  0  0
   19.1511   21.5367   20.4532 H   0  0  0  0  0  0  0  0  0  0  0  0
  1  2  1  0  0  0  0
  1  3  2  0  0  0  0
  1  4  1  0  0  0  0
  4  5  1  0  0  0  0
  4  6  1  0  0  0  0
  4  7  1  0  0  0  0
  7  8  1  0  0  0  0
  7  9  1  0  0  0  0
  7 10  1  0  0  0  0
 10 11  1  0  0  0  0
 10 12  1  0  0  0  0
 10 13  1  0  0  0  0
 13 14  1  0  0  0  0
 13 15  1  0  0  0  0
 13 16  1  0  0  0  0
 16 17  1  0  0  0  0
 16 18  1  0  0  0  0
 16 19  1  0  0  0  0
 19 20  1  0  0  0  0
 19 21  1  0  0  0  0
 19 22  1  0  0  0  0
 22 23  1  0  0  0  0
 22 24  1  0  0  0  0
 22 25  1  0  0  0  0
M  END
> <VM2 Rank>
115

> <Conf_Id>
246

> <Probability>
0.01

> <Sum Probability>
99.90

> <Delta G>
4.899

> <G>
-3.063

> <E>
-27.916

> <-TS>
24.852

> <U+W>
-48.483

> <U>
11.373

> <W>
-59.857

> <W(PB)>
-62.293

> <W(SA)>
2.436

> <Valence>
11.258

> <Coulomb>
-0.951

> <VdW>
1.066

> <VdW6>
-9.862

> <VdW12>
10.928

> <Bond>
0.236

> <Angle>
3.228

> <Pdih>
7.794

> <Idih>
0.001

> <Tether>
0.000

$$$$
VeraChem MOL file


 25 24  0  0  0  0  0  0  0  0999 V2000     
   19.7716   18.7688   26.7791 C   0  0  0  0  0  0  0  0  0  0  0  0
   20.4723   18.5297   27.7429 O   0  5  0  0  0  0  0  0  0  0  0  0
   18.5728   18.9548   26.8481 O   0  0  0  0  0  0  0  0  0  0  0  0
   20.4376   18.8617   25.4111 C   0  0  0  0  0  0  0  0  0  0  0  0
   19.7221   18.4966   24.6685 H   0  0  0  0  0  0  0  0  0  0  0  0
   21.2895   18.1716   25.4020 H   0  0  0  0  0  0  0  0  0  0  0  0
   20.9127   20.2994   25.0723 C   0  0  0  0  0  0  0  0  0  0  0  0
   20.0636   20.9958   25.1072 H   0  0  0  0  0  0  0  0  0  0  0  0
   21.6027   20.6203   25.8650 H   0  0  0  0  0  0  0  0  0  0  0  0
   21.6441   20.4115   23.7099 C   0  0  0  0  0  0  0  0  0  0  0  0
   22.1773   19.4796   23.4812 H   0  0  0  0  0  0  0  0  0  0  0  0
   22.4260   21.1764   23.8115 H   0  0  0  0  0  0  0  0  0  0  0  0
   20.7425   20.8358   22.5203 C   0  0  0  0  0  0  0  0  0  0  0  0
   20.2962   21.8134   22.7477 H   0  0  0  0  0  0  0  0  0  0  0  0
   21.3787   20.9955   21.6392 H   0  0  0  0  0  0  0  0  0  0  0  0
   19.6098   19.8523   22.1389 C   0  0  0  0  0  0  0  0  0  0  0  0
   19.0235   20.3013   21.3257 H   0  0  0  0  0  0  0  0  0  0  0  0
   18.9148   19.7370   22.9799 H   0  0  0  0  0  0  0  0  0  0  0  0
   20.1250   18.4714   21.6732 C   0  0  0  0  0  0  0  0  0  0  0  0
   20.8158   18.6009   20.8288 H   0  0  0  0  0  0  0  0  0  0  0  0
   20.6933   17.9861   22.4769 H   0  0  0  0  0  0  0  0  0  0  0  0
   18.9646   17.5485   21.2502 C   0  0  0  0  0  0  0  0  0  0  0  0
   18.3961   17.9870   20.4197 H   0  0  0  0  0  0  0  0  0  0  0  0
   19.3461   16.5729   20.9220 H   0  0  0  0  0  0  0  0  0  0  0  0
   18.2742   17.3787   22.0868 H   0  0  0  0  0  0  0  0  0  0  0  0
  1  2  1  0  0  0  0
  1  3  2  0  0  0  0
  1  4  1  0  0  0  0
  4  5  1  0  0  0  0
  4  6  1  0  0  0  0
  4  7  1  0  0  0  0
  7  8  1  0  0  0  0
  7  9  1  0  0  0  0
  7 10  1  0  0  0  0
 10 11  1  0  0  0  0
 10 12  1  0  0  0  0
 10 13  1  0  0  0  0
 13 14  1  0  0  0  0
 13 15  1  0  0  0  0
 13 16  1  0  0  0  0
 16 17  1  0  0  0  0
 16 18  1  0  0  0  0
 16 19  1  0  0  0  0
 19 20  1  0  0  0  0
 19 21  1  0  0  0  0
 19 22  1  0  0  0  0
 22 23  1  0  0  0  0
 22 24  1  0  0  0  0
 22 25  1  0  0  0  0
M  END
> <VM2 Rank>
116

> <Conf_Id>
168

> <Probability>
0.01

> <Sum Probability>
99.91

> <Delta G>
4.942

> <G>
-3.020

> <E>
-28.283

> <-TS>
25.264

> <U+W>
-48.851

> <U>
11.279

> <W>
-60.130

> <W(PB)>
-62.517

> <W(SA)>
2.387

> <Valence>
11.119

> <Coulomb>
-0.438

> <VdW>
0.597

> <VdW6>
-10.693

> <VdW12>
11.290

> <Bond>
0.252

> <Angle>
3.622

> <Pdih>
7.244

> <Idih>
0.001

> <Tether>
0.000

$$$$
VeraChem MOL file


 25 24  0  0  0  0  0  0  0  0999 V2000     
   19.5641   18.8829   26.4250 C   0  0  0  0  0  0  0  0  0  0  0  0
   19.2219   17.7572   26.1202 O   0  5  0  0  0  0  0  0  0  0  0  0
   18.7820   19.7635   26.7261 O   0  0  0  0  0  0  0  0  0  0  0  0
   21.0598   19.1843   26.5021 C   0  0  0  0  0  0  0  0  0  0  0  0
   21.6200   18.2765   26.2477 H   0  0  0  0  0  0  0  0  0  0  0  0
   21.2760   19.4018   27.5545 H   0  0  0  0  0  0  0  0  0  0  0  0
   21.5422   20.3774   25.6296 C   0  0  0  0  0  0  0  0  0  0  0  0
   20.8450   21.2208   25.7302 H   0  0  0  0  0  0  0  0  0  0  0  0
   22.5008   20.7283   26.0350 H   0  0  0  0  0  0  0  0  0  0  0  0
   21.7576   20.0425   24.1327 C   0  0  0  0  0  0  0  0  0  0  0  0
   22.4675   19.2095   24.0387 H   0  0  0  0  0  0  0  0  0  0  0  0
   22.2334   20.9091   23.6538 H   0  0  0  0  0  0  0  0  0  0  0  0
   20.4569   19.7036   23.3696 C   0  0  0  0  0  0  0  0  0  0  0  0
   20.0392   18.7679   23.7590 H   0  0  0  0  0  0  0  0  0  0  0  0
   19.7101   20.4896   23.5465 H   0  0  0  0  0  0  0  0  0  0  0  0
   20.7073   19.5586   21.8504 C   0  0  0  0  0  0  0  0  0  0  0  0
   21.4198   18.7422   21.6695 H   0  0  0  0  0  0  0  0  0  0  0  0
   21.1828   20.4755   21.4764 H   0  0  0  0  0  0  0  0  0  0  0  0
   19.4165   19.3088   21.0359 C   0  0  0  0  0  0  0  0  0  0  0  0
   18.7031   20.1257   21.2121 H   0  0  0  0  0  0  0  0  0  0  0  0
   19.6636   19.3379   19.9657 H   0  0  0  0  0  0  0  0  0  0  0  0
   18.7447   17.9553   21.3543 C   0  0  0  0  0  0  0  0  0  0  0  0
   19.4485   17.1246   21.2136 H   0  0  0  0  0  0  0  0  0  0  0  0
   18.3774   17.9235   22.3880 H   0  0  0  0  0  0  0  0  0  0  0  0
   17.8862   17.7872   20.6915 H   0  0  0  0  0  0  0  0  0  0  0  0
  1  2  1  0  0  0  0
  1  3  2  0  0  0  0
  1  4  1  0  0  0  0
  4  5  1  0  0  0  0
  4  6  1  0  0  0  0
  4  7  1  0  0  0  0
  7  8  1  0  0  0  0
  7  9  1  0  0  0  0
  7 10  1  0  0  0  0
 10 11  1  0  0  0  0
 10 12  1  0  0  0  0
 10 13  1  0  0  0  0
 13 14  1  0  0  0  0
 13 15  1  0  0  0  0
 13 16  1  0  0  0  0
 16 17  1  0  0  0  0
 16 18  1  0  0  0  0
 16 19  1  0  0  0  0
 19 20  1  0  0  0  0
 19 21  1  0  0  0  0
 19 22  1  0  0  0  0
 22 23  1  0  0  0  0
 22 24  1  0  0  0  0
 22 25  1  0  0  0  0
M  END
> <VM2 Rank>
117

> <Conf_Id>
527

> <Probability>
0.01

> <Sum Probability>
99.91

> <Delta G>
4.989

> <G>
-2.973

> <E>
-28.131

> <-TS>
25.158

> <U+W>
-48.698

> <U>
12.472

> <W>
-61.170

> <W(PB)>
-63.568

> <W(SA)>
2.398

> <Valence>
9.941

> <Coulomb>
1.807

> <VdW>
0.724

> <VdW6>
-10.776

> <VdW12>
11.499

> <Bond>
0.236

> <Angle>
3.415

> <Pdih>
6.282

> <Idih>
0.007

> <Tether>
0.000

$$$$
VeraChem MOL file


 25 24  0  0  0  0  0  0  0  0999 V2000     
   20.4864   19.3100   27.3363 C   0  0  0  0  0  0  0  0  0  0  0  0
   21.6052   19.7663   27.4662 O   0  5  0  0  0  0  0  0  0  0  0  0
   19.5907   19.4845   28.1388 O   0  0  0  0  0  0  0  0  0  0  0  0
   20.1842   18.4893   26.0876 C   0  0  0  0  0  0  0  0  0  0  0  0
   19.4433   17.7257   26.3531 H   0  0  0  0  0  0  0  0  0  0  0  0
   21.1013   17.9639   25.7950 H   0  0  0  0  0  0  0  0  0  0  0  0
   19.6653   19.3527   24.9113 C   0  0  0  0  0  0  0  0  0  0  0  0
   18.7537   19.8800   25.2245 H   0  0  0  0  0  0  0  0  0  0  0  0
   20.4128   20.1217   24.6780 H   0  0  0  0  0  0  0  0  0  0  0  0
   19.3670   18.4947   23.6591 C   0  0  0  0  0  0  0  0  0  0  0  0
   18.6426   17.7152   23.9315 H   0  0  0  0  0  0  0  0  0  0  0  0
   20.2784   17.9724   23.3445 H   0  0  0  0  0  0  0  0  0  0  0  0
   18.7818   19.3156   22.4821 C   0  0  0  0  0  0  0  0  0  0  0  0
   18.3430   18.6324   21.7425 H   0  0  0  0  0  0  0  0  0  0  0  0
   17.9447   19.9166   22.8626 H   0  0  0  0  0  0  0  0  0  0  0  0
   19.7956   20.2552   21.7758 C   0  0  0  0  0  0  0  0  0  0  0  0
   20.5735   20.5886   22.4736 H   0  0  0  0  0  0  0  0  0  0  0  0
   19.2606   21.1649   21.4709 H   0  0  0  0  0  0  0  0  0  0  0  0
   20.4528   19.6549   20.5084 C   0  0  0  0  0  0  0  0  0  0  0  0
   19.6756   19.4031   19.7737 H   0  0  0  0  0  0  0  0  0  0  0  0
   21.0787   20.4274   20.0409 H   0  0  0  0  0  0  0  0  0  0  0  0
   21.3239   18.4108   20.7804 C   0  0  0  0  0  0  0  0  0  0  0  0
   20.7099   17.5608   21.1029 H   0  0  0  0  0  0  0  0  0  0  0  0
   21.8561   18.1079   19.8694 H   0  0  0  0  0  0  0  0  0  0  0  0
   22.0715   18.6160   21.5576 H   0  0  0  0  0  0  0  0  0  0  0  0
  1  2  1  0  0  0  0
  1  3  2  0  0  0  0
  1  4  1  0  0  0  0
  4  5  1  0  0  0  0
  4  6  1  0  0  0  0
  4  7  1  0  0  0  0
  7  8  1  0  0  0  0
  7  9  1  0  0  0  0
  7 10  1  0  0  0  0
 10 11  1  0  0  0  0
 10 12  1  0  0  0  0
 10 13  1  0  0  0  0
 13 14  1  0  0  0  0
 13 15  1  0  0  0  0
 13 16  1  0  0  0  0
 16 17  1  0  0  0  0
 16 18  1  0  0  0  0
 16 19  1  0  0  0  0
 19 20  1  0  0  0  0
 19 21  1  0  0  0  0
 19 22  1  0  0  0  0
 22 23  1  0  0  0  0
 22 24  1  0  0  0  0
 22 25  1  0  0  0  0
M  END
> <VM2 Rank>
118

> <Conf_Id>
92

> <Probability>
0.01

> <Sum Probability>
99.92

> <Delta G>
5.019

> <G>
-2.944

> <E>
-27.761

> <-TS>
24.817

> <U+W>
-48.329

> <U>
11.068

> <W>
-59.397

> <W(PB)>
-61.844

> <W(SA)>
2.447

> <Valence>
11.256

> <Coulomb>
-1.286

> <VdW>
1.098

> <VdW6>
-9.790

> <VdW12>
10.888

> <Bond>
0.240

> <Angle>
3.222

> <Pdih>
7.793

> <Idih>
0.001

> <Tether>
0.000

$$$$
VeraChem MOL file


 25 24  0  0  0  0  0  0  0  0999 V2000     
   20.7070   19.0677   26.4780 C   0  0  0  0  0  0  0  0  0  0  0  0
   21.7993   19.1326   25.9493 O   0  5  0  0  0  0  0  0  0  0  0  0
   20.3781   18.1759   27.2358 O   0  0  0  0  0  0  0  0  0  0  0  0
   19.7048   20.1866   26.2070 C   0  0  0  0  0  0  0  0  0  0  0  0
   20.2258   21.0105   25.7062 H   0  0  0  0  0  0  0  0  0  0  0  0
   19.3771   20.5722   27.1793 H   0  0  0  0  0  0  0  0  0  0  0  0
   18.4634   19.7439   25.3848 C   0  0  0  0  0  0  0  0  0  0  0  0
   17.9231   18.9716   25.9495 H   0  0  0  0  0  0  0  0  0  0  0  0
   17.7737   20.5932   25.2880 H   0  0  0  0  0  0  0  0  0  0  0  0
   18.7941   19.1918   23.9766 C   0  0  0  0  0  0  0  0  0  0  0  0
   17.8623   18.8487   23.5073 H   0  0  0  0  0  0  0  0  0  0  0  0
   19.4369   18.3070   24.0758 H   0  0  0  0  0  0  0  0  0  0  0  0
   19.4721   20.2328   23.0532 C   0  0  0  0  0  0  0  0  0  0  0  0
   18.8832   21.1597   23.0645 H   0  0  0  0  0  0  0  0  0  0  0  0
   20.4631   20.4934   23.4461 H   0  0  0  0  0  0  0  0  0  0  0  0
   19.6076   19.7562   21.5850 C   0  0  0  0  0  0  0  0  0  0  0  0
   20.0608   20.5631   20.9933 H   0  0  0  0  0  0  0  0  0  0  0  0
   18.6037   19.6008   21.1669 H   0  0  0  0  0  0  0  0  0  0  0  0
   20.4363   18.4630   21.3852 C   0  0  0  0  0  0  0  0  0  0  0  0
   19.9422   17.6169   21.8808 H   0  0  0  0  0  0  0  0  0  0  0  0
   20.4533   18.2199   20.3139 H   0  0  0  0  0  0  0  0  0  0  0  0
   21.8903   18.5836   21.8911 C   0  0  0  0  0  0  0  0  0  0  0  0
   22.4599   17.6786   21.6439 H   0  0  0  0  0  0  0  0  0  0  0  0
   22.3976   19.4406   21.4297 H   0  0  0  0  0  0  0  0  0  0  0  0
   21.9237   18.7093   22.9815 H   0  0  0  0  0  0  0  0  0  0  0  0
  1  2  1  0  0  0  0
  1  3  2  0  0  0  0
  1  4  1  0  0  0  0
  4  5  1  0  0  0  0
  4  6  1  0  0  0  0
  4  7  1  0  0  0  0
  7  8  1  0  0  0  0
  7  9  1  0  0  0  0
  7 10  1  0  0  0  0
 10 11  1  0  0  0  0
 10 12  1  0  0  0  0
 10 13  1  0  0  0  0
 13 14  1  0  0  0  0
 13 15  1  0  0  0  0
 13 16  1  0  0  0  0
 16 17  1  0  0  0  0
 16 18  1  0  0  0  0
 16 19  1  0  0  0  0
 19 20  1  0  0  0  0
 19 21  1  0  0  0  0
 19 22  1  0  0  0  0
 22 23  1  0  0  0  0
 22 24  1  0  0  0  0
 22 25  1  0  0  0  0
M  END
> <VM2 Rank>
119

> <Conf_Id>
169

> <Probability>
0.00

> <Sum Probability>
99.92

> <Delta G>
5.044

> <G>
-2.918

> <E>
-28.422

> <-TS>
25.504

> <U+W>
-48.990

> <U>
12.037

> <W>
-61.027

> <W(PB)>
-63.375

> <W(SA)>
2.347

> <Valence>
9.200

> <Coulomb>
2.438

> <VdW>
0.400

> <VdW6>
-11.698

> <VdW12>
12.097

> <Bond>
0.260

> <Angle>
3.326

> <Pdih>
5.612

> <Idih>
0.002

> <Tether>
0.000

$$$$
VeraChem MOL file


 25 24  0  0  0  0  0  0  0  0999 V2000     
   19.6514   19.7248   26.7158 C   0  0  0  0  0  0  0  0  0  0  0  0
   20.1249   19.6611   27.8332 O   0  5  0  0  0  0  0  0  0  0  0  0
   18.8686   20.5852   26.3641 O   0  0  0  0  0  0  0  0  0  0  0  0
   20.0788   18.6788   25.6928 C   0  0  0  0  0  0  0  0  0  0  0  0
   19.2309   18.5028   25.0221 H   0  0  0  0  0  0  0  0  0  0  0  0
   20.2705   17.7395   26.2249 H   0  0  0  0  0  0  0  0  0  0  0  0
   21.3364   19.1041   24.8908 C   0  0  0  0  0  0  0  0  0  0  0  0
   21.1494   20.0523   24.3712 H   0  0  0  0  0  0  0  0  0  0  0  0
   22.1503   19.3067   25.6004 H   0  0  0  0  0  0  0  0  0  0  0  0
   21.8171   18.0311   23.8844 C   0  0  0  0  0  0  0  0  0  0  0  0
   22.0699   17.1177   24.4398 H   0  0  0  0  0  0  0  0  0  0  0  0
   22.7557   18.3730   23.4275 H   0  0  0  0  0  0  0  0  0  0  0  0
   20.8183   17.6627   22.7555 C   0  0  0  0  0  0  0  0  0  0  0  0
   21.2754   16.8520   22.1719 H   0  0  0  0  0  0  0  0  0  0  0  0
   19.8976   17.2356   23.1736 H   0  0  0  0  0  0  0  0  0  0  0  0
   20.4865   18.8192   21.7776 C   0  0  0  0  0  0  0  0  0  0  0  0
   20.3649   18.3949   20.7715 H   0  0  0  0  0  0  0  0  0  0  0  0
   21.3340   19.5153   21.7144 H   0  0  0  0  0  0  0  0  0  0  0  0
   19.1902   19.5835   22.1336 C   0  0  0  0  0  0  0  0  0  0  0  0
   18.3476   18.8800   22.1777 H   0  0  0  0  0  0  0  0  0  0  0  0
   19.2708   20.0409   23.1269 H   0  0  0  0  0  0  0  0  0  0  0  0
   18.8809   20.6836   21.0983 C   0  0  0  0  0  0  0  0  0  0  0  0
   18.7505   20.2554   20.0959 H   0  0  0  0  0  0  0  0  0  0  0  0
   17.9574   21.2146   21.3630 H   0  0  0  0  0  0  0  0  0  0  0  0
   19.6942   21.4198   21.0540 H   0  0  0  0  0  0  0  0  0  0  0  0
  1  2  1  0  0  0  0
  1  3  2  0  0  0  0
  1  4  1  0  0  0  0
  4  5  1  0  0  0  0
  4  6  1  0  0  0  0
  4  7  1  0  0  0  0
  7  8  1  0  0  0  0
  7  9  1  0  0  0  0
  7 10  1  0  0  0  0
 10 11  1  0  0  0  0
 10 12  1  0  0  0  0
 10 13  1  0  0  0  0
 13 14  1  0  0  0  0
 13 15  1  0  0  0  0
 13 16  1  0  0  0  0
 16 17  1  0  0  0  0
 16 18  1  0  0  0  0
 16 19  1  0  0  0  0
 19 20  1  0  0  0  0
 19 21  1  0  0  0  0
 19 22  1  0  0  0  0
 22 23  1  0  0  0  0
 22 24  1  0  0  0  0
 22 25  1  0  0  0  0
M  END
> <VM2 Rank>
120

> <Conf_Id>
975

> <Probability>
0.00

> <Sum Probability>
99.93

> <Delta G>
5.134

> <G>
-2.828

> <E>
-28.109

> <-TS>
25.281

> <U+W>
-48.676

> <U>
11.615

> <W>
-60.292

> <W(PB)>
-62.665

> <W(SA)>
2.373

> <Valence>
11.123

> <Coulomb>
-0.039

> <VdW>
0.532

> <VdW6>
-10.780

> <VdW12>
11.312

> <Bond>
0.247

> <Angle>
3.570

> <Pdih>
7.306

> <Idih>
0.001

> <Tether>
0.000

$$$$
VeraChem MOL file


 25 24  0  0  0  0  0  0  0  0999 V2000     
   20.5903   19.7851   26.7049 C   0  0  0  0  0  0  0  0  0  0  0  0
   21.2483   20.7379   26.3365 O   0  5  0  0  0  0  0  0  0  0  0  0
   20.1549   19.6629   27.8330 O   0  0  0  0  0  0  0  0  0  0  0  0
   20.2765   18.6915   25.6906 C   0  0  0  0  0  0  0  0  0  0  0  0
   20.2186   17.7362   26.2255 H   0  0  0  0  0  0  0  0  0  0  0  0
   21.1243   18.6243   25.0003 H   0  0  0  0  0  0  0  0  0  0  0  0
   18.9568   18.9515   24.9183 C   0  0  0  0  0  0  0  0  0  0  0  0
   18.1402   19.0496   25.6467 H   0  0  0  0  0  0  0  0  0  0  0  0
   19.0091   19.9151   24.3959 H   0  0  0  0  0  0  0  0  0  0  0  0
   18.5940   17.8245   23.9217 C   0  0  0  0  0  0  0  0  0  0  0  0
   17.6092   18.0430   23.4870 H   0  0  0  0  0  0  0  0  0  0  0  0
   18.4727   16.8871   24.4814 H   0  0  0  0  0  0  0  0  0  0  0  0
   19.6054   17.5849   22.7696 C   0  0  0  0  0  0  0  0  0  0  0  0
   20.5825   17.2796   23.1658 H   0  0  0  0  0  0  0  0  0  0  0  0
   19.2423   16.7216   22.1955 H   0  0  0  0  0  0  0  0  0  0  0  0
   19.7642   18.7728   21.7859 C   0  0  0  0  0  0  0  0  0  0  0  0
   18.8335   19.3548   21.7432 H   0  0  0  0  0  0  0  0  0  0  0  0
   19.9159   18.3660   20.7768 H   0  0  0  0  0  0  0  0  0  0  0  0
   20.9601   19.6970   22.1131 C   0  0  0  0  0  0  0  0  0  0  0  0
   20.8446   20.1419   23.1086 H   0  0  0  0  0  0  0  0  0  0  0  0
   21.8865   19.1070   22.1369 H   0  0  0  0  0  0  0  0  0  0  0  0
   21.1025   20.8260   21.0725 C   0  0  0  0  0  0  0  0  0  0  0  0
   21.9564   21.4711   21.3167 H   0  0  0  0  0  0  0  0  0  0  0  0
   21.2636   20.4163   20.0668 H   0  0  0  0  0  0  0  0  0  0  0  0
   20.2010   21.4522   21.0478 H   0  0  0  0  0  0  0  0  0  0  0  0
  1  2  1  0  0  0  0
  1  3  2  0  0  0  0
  1  4  1  0  0  0  0
  4  5  1  0  0  0  0
  4  6  1  0  0  0  0
  4  7  1  0  0  0  0
  7  8  1  0  0  0  0
  7  9  1  0  0  0  0
  7 10  1  0  0  0  0
 10 11  1  0  0  0  0
 10 12  1  0  0  0  0
 10 13  1  0  0  0  0
 13 14  1  0  0  0  0
 13 15  1  0  0  0  0
 13 16  1  0  0  0  0
 16 17  1  0  0  0  0
 16 18  1  0  0  0  0
 16 19  1  0  0  0  0
 19 20  1  0  0  0  0
 19 21  1  0  0  0  0
 19 22  1  0  0  0  0
 22 23  1  0  0  0  0
 22 24  1  0  0  0  0
 22 25  1  0  0  0  0
M  END
> <VM2 Rank>
121

> <Conf_Id>
1083

> <Probability>
0.00

> <Sum Probability>
99.93

> <Delta G>
5.143

> <G>
-2.820

> <E>
-28.100

> <-TS>
25.281

> <U+W>
-48.668

> <U>
11.615

> <W>
-60.283

> <W(PB)>
-62.669

> <W(SA)>
2.386

> <Valence>
11.123

> <Coulomb>
-0.039

> <VdW>
0.532

> <VdW6>
-10.780

> <VdW12>
11.312

> <Bond>
0.247

> <Angle>
3.570

> <Pdih>
7.305

> <Idih>
0.001

> <Tether>
0.000

$$$$
VeraChem MOL file


 25 24  0  0  0  0  0  0  0  0999 V2000     
   19.6203   19.0014   26.4905 C   0  0  0  0  0  0  0  0  0  0  0  0
   20.0729   18.1576   27.2395 O   0  5  0  0  0  0  0  0  0  0  0  0
   18.5165   18.9315   25.9870 O   0  0  0  0  0  0  0  0  0  0  0  0
   20.4721   20.2339   26.1980 C   0  0  0  0  0  0  0  0  0  0  0  0
   20.7725   20.6580   27.1631 H   0  0  0  0  0  0  0  0  0  0  0  0
   19.8430   20.9872   25.7104 H   0  0  0  0  0  0  0  0  0  0  0  0
   21.7390   19.9447   25.3470 C   0  0  0  0  0  0  0  0  0  0  0  0
   22.3175   20.8716   25.2356 H   0  0  0  0  0  0  0  0  0  0  0  0
   22.3823   19.2449   25.8982 H   0  0  0  0  0  0  0  0  0  0  0  0
   21.4459   19.3542   23.9461 C   0  0  0  0  0  0  0  0  0  0  0  0
   20.9183   18.3977   24.0588 H   0  0  0  0  0  0  0  0  0  0  0  0
   22.4017   19.1266   23.4551 H   0  0  0  0  0  0  0  0  0  0  0  0
   20.6251   20.3033   23.0398 C   0  0  0  0  0  0  0  0  0  0  0  0
   19.6189   20.4417   23.4556 H   0  0  0  0  0  0  0  0  0  0  0  0
   21.0966   21.2951   23.0387 H   0  0  0  0  0  0  0  0  0  0  0  0
   20.5151   19.8114   21.5745 C   0  0  0  0  0  0  0  0  0  0  0  0
   21.5205   19.7790   21.1333 H   0  0  0  0  0  0  0  0  0  0  0  0
   19.9533   20.5561   20.9944 H   0  0  0  0  0  0  0  0  0  0  0  0
   19.8459   18.4265   21.3921 C   0  0  0  0  0  0  0  0  0  0  0  0
   19.8342   18.1815   20.3213 H   0  0  0  0  0  0  0  0  0  0  0  0
   20.4509   17.6478   21.8752 H   0  0  0  0  0  0  0  0  0  0  0  0
   18.4001   18.3696   21.9314 C   0  0  0  0  0  0  0  0  0  0  0  0
   17.7816   19.1576   21.4828 H   0  0  0  0  0  0  0  0  0  0  0  0
   17.9396   17.4015   21.6963 H   0  0  0  0  0  0  0  0  0  0  0  0
   18.3766   18.4920   23.0225 H   0  0  0  0  0  0  0  0  0  0  0  0
  1  2  1  0  0  0  0
  1  3  2  0  0  0  0
  1  4  1  0  0  0  0
  4  5  1  0  0  0  0
  4  6  1  0  0  0  0
  4  7  1  0  0  0  0
  7  8  1  0  0  0  0
  7  9  1  0  0  0  0
  7 10  1  0  0  0  0
 10 11  1  0  0  0  0
 10 12  1  0  0  0  0
 10 13  1  0  0  0  0
 13 14  1  0  0  0  0
 13 15  1  0  0  0  0
 13 16  1  0  0  0  0
 16 17  1  0  0  0  0
 16 18  1  0  0  0  0
 16 19  1  0  0  0  0
 19 20  1  0  0  0  0
 19 21  1  0  0  0  0
 19 22  1  0  0  0  0
 22 23  1  0  0  0  0
 22 24  1  0  0  0  0
 22 25  1  0  0  0  0
M  END
> <VM2 Rank>
122

> <Conf_Id>
220

> <Probability>
0.00

> <Sum Probability>
99.94

> <Delta G>
5.151

> <G>
-2.812

> <E>
-28.316

> <-TS>
25.504

> <U+W>
-48.883

> <U>
12.037

> <W>
-60.921

> <W(PB)>
-63.263

> <W(SA)>
2.342

> <Valence>
9.200

> <Coulomb>
2.438

> <VdW>
0.400

> <VdW6>
-11.698

> <VdW12>
12.097

> <Bond>
0.260

> <Angle>
3.326

> <Pdih>
5.612

> <Idih>
0.002

> <Tether>
0.000

$$$$
VeraChem MOL file


 25 24  0  0  0  0  0  0  0  0999 V2000     
   20.3817   19.2643   27.1782 C   0  0  0  0  0  0  0  0  0  0  0  0
   21.3259   19.9830   27.4416 O   0  5  0  0  0  0  0  0  0  0  0  0
   19.3246   19.2964   27.7770 O   0  0  0  0  0  0  0  0  0  0  0  0
   20.5416   18.2529   26.0465 C   0  0  0  0  0  0  0  0  0  0  0  0
   19.7729   17.4786   26.1568 H   0  0  0  0  0  0  0  0  0  0  0  0
   21.5110   17.7597   26.1839 H   0  0  0  0  0  0  0  0  0  0  0  0
   20.4750   18.8758   24.6277 C   0  0  0  0  0  0  0  0  0  0  0  0
   21.2186   19.6806   24.5473 H   0  0  0  0  0  0  0  0  0  0  0  0
   20.7545   18.1048   23.8985 H   0  0  0  0  0  0  0  0  0  0  0  0
   19.0696   19.4211   24.2826 C   0  0  0  0  0  0  0  0  0  0  0  0
   18.7469   20.1132   25.0724 H   0  0  0  0  0  0  0  0  0  0  0  0
   18.3467   18.5940   24.2859 H   0  0  0  0  0  0  0  0  0  0  0  0
   18.9920   20.1673   22.9270 C   0  0  0  0  0  0  0  0  0  0  0  0
   17.9677   20.5495   22.8189 H   0  0  0  0  0  0  0  0  0  0  0  0
   19.6401   21.0541   22.9477 H   0  0  0  0  0  0  0  0  0  0  0  0
   19.3140   19.2944   21.6873 C   0  0  0  0  0  0  0  0  0  0  0  0
   18.6506   19.5976   20.8658 H   0  0  0  0  0  0  0  0  0  0  0  0
   19.0800   18.2415   21.8959 H   0  0  0  0  0  0  0  0  0  0  0  0
   20.7754   19.4358   21.2021 C   0  0  0  0  0  0  0  0  0  0  0  0
   20.9755   20.4839   20.9403 H   0  0  0  0  0  0  0  0  0  0  0  0
   21.4754   19.1742   22.0047 H   0  0  0  0  0  0  0  0  0  0  0  0
   21.0533   18.5430   19.9760 C   0  0  0  0  0  0  0  0  0  0  0  0
   20.3939   18.8080   19.1391 H   0  0  0  0  0  0  0  0  0  0  0  0
   22.0916   18.6601   19.6396 H   0  0  0  0  0  0  0  0  0  0  0  0
   20.8926   17.4842   20.2174 H   0  0  0  0  0  0  0  0  0  0  0  0
  1  2  1  0  0  0  0
  1  3  2  0  0  0  0
  1  4  1  0  0  0  0
  4  5  1  0  0  0  0
  4  6  1  0  0  0  0
  4  7  1  0  0  0  0
  7  8  1  0  0  0  0
  7  9  1  0  0  0  0
  7 10  1  0  0  0  0
 10 11  1  0  0  0  0
 10 12  1  0  0  0  0
 10 13  1  0  0  0  0
 13 14  1  0  0  0  0
 13 15  1  0  0  0  0
 13 16  1  0  0  0  0
 16 17  1  0  0  0  0
 16 18  1  0  0  0  0
 16 19  1  0  0  0  0
 19 20  1  0  0  0  0
 19 21  1  0  0  0  0
 19 22  1  0  0  0  0
 22 23  1  0  0  0  0
 22 24  1  0  0  0  0
 22 25  1  0  0  0  0
M  END
> <VM2 Rank>
123

> <Conf_Id>
538

> <Probability>
0.00

> <Sum Probability>
99.94

> <Delta G>
5.300

> <G>
-2.662

> <E>
-27.773

> <-TS>
25.111

> <U+W>
-48.341

> <U>
11.468

> <W>
-59.808

> <W(PB)>
-62.220

> <W(SA)>
2.412

> <Valence>
10.870

> <Coulomb>
-0.266

> <VdW>
0.864

> <VdW6>
-10.146

> <VdW12>
11.010

> <Bond>
0.218

> <Angle>
3.178

> <Pdih>
7.473

> <Idih>
0.001

> <Tether>
0.000

$$$$
VeraChem MOL file


 25 24  0  0  0  0  0  0  0  0999 V2000     
   19.8196   19.3181   27.1056 C   0  0  0  0  0  0  0  0  0  0  0  0
   20.6075   19.9062   27.8200 O   0  5  0  0  0  0  0  0  0  0  0  0
   18.6449   19.6152   27.0123 O   0  0  0  0  0  0  0  0  0  0  0  0
   20.3315   18.1290   26.2974 C   0  0  0  0  0  0  0  0  0  0  0  0
   19.4734   17.5182   25.9917 H   0  0  0  0  0  0  0  0  0  0  0  0
   20.9371   17.5113   26.9709 H   0  0  0  0  0  0  0  0  0  0  0  0
   21.1755   18.5251   25.0582 C   0  0  0  0  0  0  0  0  0  0  0  0
   22.0150   19.1586   25.3767 H   0  0  0  0  0  0  0  0  0  0  0  0
   21.6124   17.6176   24.6200 H   0  0  0  0  0  0  0  0  0  0  0  0
   20.3437   19.2593   23.9825 C   0  0  0  0  0  0  0  0  0  0  0  0
   19.9194   20.1785   24.4094 H   0  0  0  0  0  0  0  0  0  0  0  0
   19.4949   18.6304   23.6890 H   0  0  0  0  0  0  0  0  0  0  0  0
   21.2004   19.6195   22.7459 C   0  0  0  0  0  0  0  0  0  0  0  0
   22.0185   20.2742   23.0763 H   0  0  0  0  0  0  0  0  0  0  0  0
   21.6761   18.7190   22.3341 H   0  0  0  0  0  0  0  0  0  0  0  0
   20.4019   20.3522   21.6378 C   0  0  0  0  0  0  0  0  0  0  0  0
   21.0642   21.0969   21.1755 H   0  0  0  0  0  0  0  0  0  0  0  0
   19.5736   20.9230   22.0793 H   0  0  0  0  0  0  0  0  0  0  0  0
   19.8728   19.4346   20.5078 C   0  0  0  0  0  0  0  0  0  0  0  0
   19.3975   20.0632   19.7422 H   0  0  0  0  0  0  0  0  0  0  0  0
   20.7173   18.9347   20.0138 H   0  0  0  0  0  0  0  0  0  0  0  0
   18.8551   18.3747   20.9784 C   0  0  0  0  0  0  0  0  0  0  0  0
   18.0310   18.8395   21.5351 H   0  0  0  0  0  0  0  0  0  0  0  0
   18.4267   17.8451   20.1178 H   0  0  0  0  0  0  0  0  0  0  0  0
   19.3332   17.6261   21.6223 H   0  0  0  0  0  0  0  0  0  0  0  0
  1  2  1  0  0  0  0
  1  3  2  0  0  0  0
  1  4  1  0  0  0  0
  4  5  1  0  0  0  0
  4  6  1  0  0  0  0
  4  7  1  0  0  0  0
  7  8  1  0  0  0  0
  7  9  1  0  0  0  0
  7 10  1  0  0  0  0
 10 11  1  0  0  0  0
 10 12  1  0  0  0  0
 10 13  1  0  0  0  0
 13 14  1  0  0  0  0
 13 15  1  0  0  0  0
 13 16  1  0  0  0  0
 16 17  1  0  0  0  0
 16 18  1  0  0  0  0
 16 19  1  0  0  0  0
 19 20  1  0  0  0  0
 19 21  1  0  0  0  0
 19 22  1  0  0  0  0
 22 23  1  0  0  0  0
 22 24  1  0  0  0  0
 22 25  1  0  0  0  0
M  END
> <VM2 Rank>
124

> <Conf_Id>
415

> <Probability>
0.00

> <Sum Probability>
99.94

> <Delta G>
5.301

> <G>
-2.662

> <E>
-27.708

> <-TS>
25.047

> <U+W>
-48.276

> <U>
11.935

> <W>
-60.211

> <W(PB)>
-62.649

> <W(SA)>
2.438

> <Valence>
10.764

> <Coulomb>
0.351

> <VdW>
0.820

> <VdW6>
-10.096

> <VdW12>
10.916

> <Bond>
0.214

> <Angle>
3.143

> <Pdih>
7.406

> <Idih>
0.001

> <Tether>
0.000

$$$$
VeraChem MOL file


 25 24  0  0  0  0  0  0  0  0999 V2000     
   20.1195   19.0867   27.2051 C   0  0  0  0  0  0  0  0  0  0  0  0
   21.0023   19.6363   27.8341 O   0  5  0  0  0  0  0  0  0  0  0  0
   18.9426   19.1511   27.5011 O   0  0  0  0  0  0  0  0  0  0  0  0
   20.5148   18.2560   25.9874 C   0  0  0  0  0  0  0  0  0  0  0  0
   19.6932   17.5692   25.7503 H   0  0  0  0  0  0  0  0  0  0  0  0
   21.3722   17.6372   26.2770 H   0  0  0  0  0  0  0  0  0  0  0  0
   20.8831   19.1001   24.7396 C   0  0  0  0  0  0  0  0  0  0  0  0
   21.6881   19.8006   25.0013 H   0  0  0  0  0  0  0  0  0  0  0  0
   21.2906   18.4327   23.9713 H   0  0  0  0  0  0  0  0  0  0  0  0
   19.6735   19.8853   24.1760 C   0  0  0  0  0  0  0  0  0  0  0  0
   19.3283   20.5881   24.9467 H   0  0  0  0  0  0  0  0  0  0  0  0
   18.8314   19.2061   23.9849 H   0  0  0  0  0  0  0  0  0  0  0  0
   20.0096   20.6904   22.8951 C   0  0  0  0  0  0  0  0  0  0  0  0
   19.4548   21.6379   22.9319 H   0  0  0  0  0  0  0  0  0  0  0  0
   21.0725   20.9678   22.8870 H   0  0  0  0  0  0  0  0  0  0  0  0
   19.6342   19.9822   21.5689 C   0  0  0  0  0  0  0  0  0  0  0  0
   19.8419   20.6719   20.7395 H   0  0  0  0  0  0  0  0  0  0  0  0
   18.5520   19.7947   21.5494 H   0  0  0  0  0  0  0  0  0  0  0  0
   20.3883   18.6579   21.3197 C   0  0  0  0  0  0  0  0  0  0  0  0
   21.4699   18.8212   21.4217 H   0  0  0  0  0  0  0  0  0  0  0  0
   20.0981   17.9161   22.0752 H   0  0  0  0  0  0  0  0  0  0  0  0
   20.0851   18.0881   19.9192 C   0  0  0  0  0  0  0  0  0  0  0  0
   20.3956   18.7893   19.1335 H   0  0  0  0  0  0  0  0  0  0  0  0
   20.6219   17.1437   19.7615 H   0  0  0  0  0  0  0  0  0  0  0  0
   19.0116   17.8920   19.7993 H   0  0  0  0  0  0  0  0  0  0  0  0
  1  2  1  0  0  0  0
  1  3  2  0  0  0  0
  1  4  1  0  0  0  0
  4  5  1  0  0  0  0
  4  6  1  0  0  0  0
  4  7  1  0  0  0  0
  7  8  1  0  0  0  0
  7  9  1  0  0  0  0
  7 10  1  0  0  0  0
 10 11  1  0  0  0  0
 10 12  1  0  0  0  0
 10 13  1  0  0  0  0
 13 14  1  0  0  0  0
 13 15  1  0  0  0  0
 13 16  1  0  0  0  0
 16 17  1  0  0  0  0
 16 18  1  0  0  0  0
 16 19  1  0  0  0  0
 19 20  1  0  0  0  0
 19 21  1  0  0  0  0
 19 22  1  0  0  0  0
 22 23  1  0  0  0  0
 22 24  1  0  0  0  0
 22 25  1  0  0  0  0
M  END
> <VM2 Rank>
125

> <Conf_Id>
549

> <Probability>
0.00

> <Sum Probability>
99.94

> <Delta G>
5.316

> <G>
-2.646

> <E>
-27.726

> <-TS>
25.080

> <U+W>
-48.294

> <U>
11.345

> <W>
-59.639

> <W(PB)>
-62.076

> <W(SA)>
2.437

> <Valence>
10.840

> <Coulomb>
-0.332

> <VdW>
0.838

> <VdW6>
-10.154

> <VdW12>
10.991

> <Bond>
0.219

> <Angle>
3.144

> <Pdih>
7.476

> <Idih>
0.000

> <Tether>
0.000

$$$$
VeraChem MOL file


 25 24  0  0  0  0  0  0  0  0999 V2000     
   20.2185   19.0930   27.2040 C   0  0  0  0  0  0  0  0  0  0  0  0
   21.3843   19.3062   27.4731 O   0  5  0  0  0  0  0  0  0  0  0  0
   19.2879   19.5275   27.8538 O   0  0  0  0  0  0  0  0  0  0  0  0
   19.9038   18.2172   25.9944 C   0  0  0  0  0  0  0  0  0  0  0  0
   19.1385   17.4953   26.3027 H   0  0  0  0  0  0  0  0  0  0  0  0
   20.8000   17.6396   25.7377 H   0  0  0  0  0  0  0  0  0  0  0  0
   19.4032   19.0060   24.7566 C   0  0  0  0  0  0  0  0  0  0  0  0
   19.0658   18.2913   23.9970 H   0  0  0  0  0  0  0  0  0  0  0  0
   18.5222   19.5995   25.0378 H   0  0  0  0  0  0  0  0  0  0  0  0
   20.4904   19.9371   24.1665 C   0  0  0  0  0  0  0  0  0  0  0  0
   21.4070   19.3696   23.9551 H   0  0  0  0  0  0  0  0  0  0  0  0
   20.7616   20.6790   24.9301 H   0  0  0  0  0  0  0  0  0  0  0  0
   20.0258   20.6914   22.8949 C   0  0  0  0  0  0  0  0  0  0  0  0
   18.9364   20.8321   22.9117 H   0  0  0  0  0  0  0  0  0  0  0  0
   20.4570   21.7015   22.9203 H   0  0  0  0  0  0  0  0  0  0  0  0
   20.4570   20.0345   21.5594 C   0  0  0  0  0  0  0  0  0  0  0  0
   21.5536   19.9852   21.5147 H   0  0  0  0  0  0  0  0  0  0  0  0
   20.1447   20.6912   20.7360 H   0  0  0  0  0  0  0  0  0  0  0  0
   19.8709   18.6251   21.3256 C   0  0  0  0  0  0  0  0  0  0  0  0
   20.2698   17.9270   22.0732 H   0  0  0  0  0  0  0  0  0  0  0  0
   18.7799   18.6504   21.4528 H   0  0  0  0  0  0  0  0  0  0  0  0
   20.2113   18.0962   19.9176 C   0  0  0  0  0  0  0  0  0  0  0  0
   19.7946   17.0912   19.7710 H   0  0  0  0  0  0  0  0  0  0  0  0
   19.7966   18.7513   19.1404 H   0  0  0  0  0  0  0  0  0  0  0  0
   21.2980   18.0371   19.7728 H   0  0  0  0  0  0  0  0  0  0  0  0
  1  2  1  0  0  0  0
  1  3  2  0  0  0  0
  1  4  1  0  0  0  0
  4  5  1  0  0  0  0
  4  6  1  0  0  0  0
  4  7  1  0  0  0  0
  7  8  1  0  0  0  0
  7  9  1  0  0  0  0
  7 10  1  0  0  0  0
 10 11  1  0  0  0  0
 10 12  1  0  0  0  0
 10 13  1  0  0  0  0
 13 14  1  0  0  0  0
 13 15  1  0  0  0  0
 13 16  1  0  0  0  0
 16 17  1  0  0  0  0
 16 18  1  0  0  0  0
 16 19  1  0  0  0  0
 19 20  1  0  0  0  0
 19 21  1  0  0  0  0
 19 22  1  0  0  0  0
 22 23  1  0  0  0  0
 22 24  1  0  0  0  0
 22 25  1  0  0  0  0
M  END
> <VM2 Rank>
126

> <Conf_Id>
252

> <Probability>
0.00

> <Sum Probability>
99.95

> <Delta G>
5.319

> <G>
-2.644

> <E>
-27.724

> <-TS>
25.080

> <U+W>
-48.292

> <U>
11.345

> <W>
-59.636

> <W(PB)>
-62.100

> <W(SA)>
2.464

> <Valence>
10.840

> <Coulomb>
-0.333

> <VdW>
0.838

> <VdW6>
-10.154

> <VdW12>
10.991

> <Bond>
0.219

> <Angle>
3.144

> <Pdih>
7.476

> <Idih>
0.000

> <Tether>
0.000

$$$$
VeraChem MOL file


 25 24  0  0  0  0  0  0  0  0999 V2000     
   20.5585   19.2512   26.9631 C   0  0  0  0  0  0  0  0  0  0  0  0
   21.7677   19.1400   26.9128 O   0  5  0  0  0  0  0  0  0  0  0  0
   19.8417   18.5154   27.6126 O   0  0  0  0  0  0  0  0  0  0  0  0
   19.9085   20.3912   26.1841 C   0  0  0  0  0  0  0  0  0  0  0  0
   20.5073   21.2926   26.3599 H   0  0  0  0  0  0  0  0  0  0  0  0
   18.9151   20.5826   26.6076 H   0  0  0  0  0  0  0  0  0  0  0  0
   19.8008   20.1302   24.6593 C   0  0  0  0  0  0  0  0  0  0  0  0
   19.4427   21.0428   24.1645 H   0  0  0  0  0  0  0  0  0  0  0  0
   20.8039   19.9210   24.2647 H   0  0  0  0  0  0  0  0  0  0  0  0
   18.8489   18.9587   24.3246 C   0  0  0  0  0  0  0  0  0  0  0  0
   17.8906   19.1203   24.8368 H   0  0  0  0  0  0  0  0  0  0  0  0
   19.2595   18.0241   24.7309 H   0  0  0  0  0  0  0  0  0  0  0  0
   18.5683   18.7792   22.8114 C   0  0  0  0  0  0  0  0  0  0  0  0
   17.8436   17.9604   22.7052 H   0  0  0  0  0  0  0  0  0  0  0  0
   18.0693   19.6724   22.4114 H   0  0  0  0  0  0  0  0  0  0  0  0
   19.8156   18.4322   21.9593 C   0  0  0  0  0  0  0  0  0  0  0  0
   19.5155   17.7235   21.1753 H   0  0  0  0  0  0  0  0  0  0  0  0
   20.5597   17.9092   22.5755 H   0  0  0  0  0  0  0  0  0  0  0  0
   20.4528   19.6640   21.2755 C   0  0  0  0  0  0  0  0  0  0  0  0
   19.7130   20.1446   20.6207 H   0  0  0  0  0  0  0  0  0  0  0  0
   20.7437   20.4124   22.0225 H   0  0  0  0  0  0  0  0  0  0  0  0
   21.6903   19.2718   20.4433 C   0  0  0  0  0  0  0  0  0  0  0  0
   22.1268   20.1552   19.9594 H   0  0  0  0  0  0  0  0  0  0  0  0
   22.4618   18.8173   21.0784 H   0  0  0  0  0  0  0  0  0  0  0  0
   21.4242   18.5519   19.6582 H   0  0  0  0  0  0  0  0  0  0  0  0
  1  2  1  0  0  0  0
  1  3  2  0  0  0  0
  1  4  1  0  0  0  0
  4  5  1  0  0  0  0
  4  6  1  0  0  0  0
  4  7  1  0  0  0  0
  7  8  1  0  0  0  0
  7  9  1  0  0  0  0
  7 10  1  0  0  0  0
 10 11  1  0  0  0  0
 10 12  1  0  0  0  0
 10 13  1  0  0  0  0
 13 14  1  0  0  0  0
 13 15  1  0  0  0  0
 13 16  1  0  0  0  0
 16 17  1  0  0  0  0
 16 18  1  0  0  0  0
 16 19  1  0  0  0  0
 19 20  1  0  0  0  0
 19 21  1  0  0  0  0
 19 22  1  0  0  0  0
 22 23  1  0  0  0  0
 22 24  1  0  0  0  0
 22 25  1  0  0  0  0
M  END
> <VM2 Rank>
127

> <Conf_Id>
563

> <Probability>
0.00

> <Sum Probability>
99.95

> <Delta G>
5.327

> <G>
-2.635

> <E>
-27.714

> <-TS>
25.078

> <U+W>
-48.281

> <U>
12.004

> <W>
-60.285

> <W(PB)>
-62.708

> <W(SA)>
2.423

> <Valence>
10.797

> <Coulomb>
0.449

> <VdW>
0.758

> <VdW6>
-10.233

> <VdW12>
10.990

> <Bond>
0.215

> <Angle>
3.136

> <Pdih>
7.446

> <Idih>
0.001

> <Tether>
0.000

$$$$
VeraChem MOL file


 25 24  0  0  0  0  0  0  0  0999 V2000     
   20.0180   19.3218   26.9637 C   0  0  0  0  0  0  0  0  0  0  0  0
   20.8917   19.6651   27.7360 O   0  5  0  0  0  0  0  0  0  0  0  0
   18.8749   19.7312   27.0175 O   0  0  0  0  0  0  0  0  0  0  0  0
   20.3710   18.2982   25.8883 C   0  0  0  0  0  0  0  0  0  0  0  0
   19.4422   17.8897   25.4741 H   0  0  0  0  0  0  0  0  0  0  0  0
   20.8823   17.4657   26.3855 H   0  0  0  0  0  0  0  0  0  0  0  0
   21.2763   18.8549   24.7558 C   0  0  0  0  0  0  0  0  0  0  0  0
   22.2212   19.1999   25.1976 H   0  0  0  0  0  0  0  0  0  0  0  0
   21.5432   18.0387   24.0722 H   0  0  0  0  0  0  0  0  0  0  0  0
   20.6488   20.0228   23.9518 C   0  0  0  0  0  0  0  0  0  0  0  0
   21.3736   20.3690   23.2034 H   0  0  0  0  0  0  0  0  0  0  0  0
   20.4895   20.8756   24.6256 H   0  0  0  0  0  0  0  0  0  0  0  0
   19.3063   19.6921   23.2486 C   0  0  0  0  0  0  0  0  0  0  0  0
   18.5395   19.4969   24.0101 H   0  0  0  0  0  0  0  0  0  0  0  0
   18.9602   20.5851   22.7124 H   0  0  0  0  0  0  0  0  0  0  0  0
   19.3536   18.4921   22.2663 C   0  0  0  0  0  0  0  0  0  0  0  0
   18.3547   18.3568   21.8303 H   0  0  0  0  0  0  0  0  0  0  0  0
   19.5596   17.5718   22.8282 H   0  0  0  0  0  0  0  0  0  0  0  0
   20.3857   18.6216   21.1190 C   0  0  0  0  0  0  0  0  0  0  0  0
   21.4023   18.6790   21.5298 H   0  0  0  0  0  0  0  0  0  0  0  0
   20.3533   17.7053   20.5138 H   0  0  0  0  0  0  0  0  0  0  0  0
   20.1267   19.8342   20.1990 C   0  0  0  0  0  0  0  0  0  0  0  0
   20.2563   20.7798   20.7402 H   0  0  0  0  0  0  0  0  0  0  0  0
   20.8295   19.8340   19.3559 H   0  0  0  0  0  0  0  0  0  0  0  0
   19.1080   19.8072   19.7910 H   0  0  0  0  0  0  0  0  0  0  0  0
  1  2  1  0  0  0  0
  1  3  2  0  0  0  0
  1  4  1  0  0  0  0
  4  5  1  0  0  0  0
  4  6  1  0  0  0  0
  4  7  1  0  0  0  0
  7  8  1  0  0  0  0
  7  9  1  0  0  0  0
  7 10  1  0  0  0  0
 10 11  1  0  0  0  0
 10 12  1  0  0  0  0
 10 13  1  0  0  0  0
 13 14  1  0  0  0  0
 13 15  1  0  0  0  0
 13 16  1  0  0  0  0
 16 17  1  0  0  0  0
 16 18  1  0  0  0  0
 16 19  1  0  0  0  0
 19 20  1  0  0  0  0
 19 21  1  0  0  0  0
 19 22  1  0  0  0  0
 22 23  1  0  0  0  0
 22 24  1  0  0  0  0
 22 25  1  0  0  0  0
M  END
> <VM2 Rank>
128

> <Conf_Id>
146

> <Probability>
0.00

> <Sum Probability>
99.95

> <Delta G>
5.345

> <G>
-2.618

> <E>
-28.450

> <-TS>
25.832

> <U+W>
-49.017

> <U>
11.078

> <W>
-60.096

> <W(PB)>
-62.453

> <W(SA)>
2.357

> <Valence>
9.623

> <Coulomb>
0.949

> <VdW>
0.506

> <VdW6>
-12.338

> <VdW12>
12.845

> <Bond>
0.307

> <Angle>
3.790

> <Pdih>
5.525

> <Idih>
0.001

> <Tether>
0.000

$$$$
VeraChem MOL file


 25 24  0  0  0  0  0  0  0  0999 V2000     
   19.9354   19.2360   27.1833 C   0  0  0  0  0  0  0  0  0  0  0  0
   20.9934   19.4030   27.7575 O   0  5  0  0  0  0  0  0  0  0  0  0
   18.9140   19.8293   27.4693 O   0  0  0  0  0  0  0  0  0  0  0  0
   19.8792   18.2107   26.0542 C   0  0  0  0  0  0  0  0  0  0  0  0
   18.9837   17.5986   26.2131 H   0  0  0  0  0  0  0  0  0  0  0  0
   20.7424   17.5403   26.1457 H   0  0  0  0  0  0  0  0  0  0  0  0
   19.8338   18.8348   24.6350 C   0  0  0  0  0  0  0  0  0  0  0  0
   19.6377   18.0335   23.9114 H   0  0  0  0  0  0  0  0  0  0  0  0
   18.9924   19.5387   24.5729 H   0  0  0  0  0  0  0  0  0  0  0  0
   21.1503   19.5535   24.2586 C   0  0  0  0  0  0  0  0  0  0  0  0
   21.9722   18.8247   24.2441 H   0  0  0  0  0  0  0  0  0  0  0  0
   21.4008   20.2821   25.0418 H   0  0  0  0  0  0  0  0  0  0  0  0
   21.1016   20.3014   22.9026 C   0  0  0  0  0  0  0  0  0  0  0  0
   20.3470   21.0990   22.9396 H   0  0  0  0  0  0  0  0  0  0  0  0
   22.0664   20.8102   22.7716 H   0  0  0  0  0  0  0  0  0  0  0  0
   20.8642   19.3930   21.6694 C   0  0  0  0  0  0  0  0  0  0  0  0
   21.2345   18.3785   21.8710 H   0  0  0  0  0  0  0  0  0  0  0  0
   21.4648   19.7766   20.8333 H   0  0  0  0  0  0  0  0  0  0  0  0
   19.3859   19.3474   21.2183 C   0  0  0  0  0  0  0  0  0  0  0  0
   18.7433   19.0005   22.0365 H   0  0  0  0  0  0  0  0  0  0  0  0
   19.0486   20.3614   20.9626 H   0  0  0  0  0  0  0  0  0  0  0  0
   19.1951   18.4249   19.9976 C   0  0  0  0  0  0  0  0  0  0  0  0
   18.1428   18.4090   19.6855 H   0  0  0  0  0  0  0  0  0  0  0  0
   19.7961   18.7699   19.1462 H   0  0  0  0  0  0  0  0  0  0  0  0
   19.4941   17.3952   20.2338 H   0  0  0  0  0  0  0  0  0  0  0  0
  1  2  1  0  0  0  0
  1  3  2  0  0  0  0
  1  4  1  0  0  0  0
  4  5  1  0  0  0  0
  4  6  1  0  0  0  0
  4  7  1  0  0  0  0
  7  8  1  0  0  0  0
  7  9  1  0  0  0  0
  7 10  1  0  0  0  0
 10 11  1  0  0  0  0
 10 12  1  0  0  0  0
 10 13  1  0  0  0  0
 13 14  1  0  0  0  0
 13 15  1  0  0  0  0
 13 16  1  0  0  0  0
 16 17  1  0  0  0  0
 16 18  1  0  0  0  0
 16 19  1  0  0  0  0
 19 20  1  0  0  0  0
 19 21  1  0  0  0  0
 19 22  1  0  0  0  0
 22 23  1  0  0  0  0
 22 24  1  0  0  0  0
 22 25  1  0  0  0  0
M  END
> <VM2 Rank>
129

> <Conf_Id>
571

> <Probability>
0.00

> <Sum Probability>
99.96

> <Delta G>
5.351

> <G>
-2.611

> <E>
-27.723

> <-TS>
25.112

> <U+W>
-48.290

> <U>
11.468

> <W>
-59.758

> <W(PB)>
-62.184

> <W(SA)>
2.426

> <Valence>
10.870

> <Coulomb>
-0.266

> <VdW>
0.864

> <VdW6>
-10.146

> <VdW12>
11.010

> <Bond>
0.218

> <Angle>
3.178

> <Pdih>
7.473

> <Idih>
0.001

> <Tether>
0.000

$$$$
VeraChem MOL file


 25 24  0  0  0  0  0  0  0  0999 V2000     
   20.0191   19.3380   26.9634 C   0  0  0  0  0  0  0  0  0  0  0  0
   20.8421   18.9222   27.7554 O   0  5  0  0  0  0  0  0  0  0  0  0
   18.8319   19.0875   27.0343 O   0  0  0  0  0  0  0  0  0  0  0  0
   20.5013   20.2482   25.8373 C   0  0  0  0  0  0  0  0  0  0  0  0
   21.1204   21.0301   26.2921 H   0  0  0  0  0  0  0  0  0  0  0  0
   19.6336   20.7544   25.3992 H   0  0  0  0  0  0  0  0  0  0  0  0
   21.3205   19.5178   24.7385 C   0  0  0  0  0  0  0  0  0  0  0  0
   21.6912   20.2545   24.0142 H   0  0  0  0  0  0  0  0  0  0  0  0
   22.2127   19.0737   25.2009 H   0  0  0  0  0  0  0  0  0  0  0  0
   20.5405   18.4034   23.9942 C   0  0  0  0  0  0  0  0  0  0  0  0
   20.2715   17.6157   24.7111 H   0  0  0  0  0  0  0  0  0  0  0  0
   21.2102   17.9254   23.2674 H   0  0  0  0  0  0  0  0  0  0  0  0
   19.2515   18.8727   23.2701 C   0  0  0  0  0  0  0  0  0  0  0  0
   18.7878   18.0069   22.7799 H   0  0  0  0  0  0  0  0  0  0  0  0
   18.5201   19.2076   24.0176 H   0  0  0  0  0  0  0  0  0  0  0  0
   19.4546   20.0028   22.2267 C   0  0  0  0  0  0  0  0  0  0  0  0
   19.7830   20.9156   22.7405 H   0  0  0  0  0  0  0  0  0  0  0  0
   18.4810   20.2469   21.7806 H   0  0  0  0  0  0  0  0  0  0  0  0
   20.4563   19.6776   21.0913 C   0  0  0  0  0  0  0  0  0  0  0  0
   20.5440   20.5572   20.4391 H   0  0  0  0  0  0  0  0  0  0  0  0
   21.4577   19.5069   21.5082 H   0  0  0  0  0  0  0  0  0  0  0  0
   20.0352   18.4638   20.2349 C   0  0  0  0  0  0  0  0  0  0  0  0
   19.0277   18.6048   19.8224 H   0  0  0  0  0  0  0  0  0  0  0  0
   20.7288   18.3265   19.3954 H   0  0  0  0  0  0  0  0  0  0  0  0
   20.0397   17.5389   20.8252 H   0  0  0  0  0  0  0  0  0  0  0  0
  1  2  1  0  0  0  0
  1  3  2  0  0  0  0
  1  4  1  0  0  0  0
  4  5  1  0  0  0  0
  4  6  1  0  0  0  0
  4  7  1  0  0  0  0
  7  8  1  0  0  0  0
  7  9  1  0  0  0  0
  7 10  1  0  0  0  0
 10 11  1  0  0  0  0
 10 12  1  0  0  0  0
 10 13  1  0  0  0  0
 13 14  1  0  0  0  0
 13 15  1  0  0  0  0
 13 16  1  0  0  0  0
 16 17  1  0  0  0  0
 16 18  1  0  0  0  0
 16 19  1  0  0  0  0
 19 20  1  0  0  0  0
 19 21  1  0  0  0  0
 19 22  1  0  0  0  0
 22 23  1  0  0  0  0
 22 24  1  0  0  0  0
 22 25  1  0  0  0  0
M  END
> <VM2 Rank>
130

> <Conf_Id>
565

> <Probability>
0.00

> <Sum Probability>
99.96

> <Delta G>
5.391

> <G>
-2.571

> <E>
-28.403

> <-TS>
25.832

> <U+W>
-48.971

> <U>
11.079

> <W>
-60.050

> <W(PB)>
-62.389

> <W(SA)>
2.339

> <Valence>
9.623

> <Coulomb>
0.950

> <VdW>
0.506

> <VdW6>
-12.338

> <VdW12>
12.844

> <Bond>
0.307

> <Angle>
3.790

> <Pdih>
5.524

> <Idih>
0.001

> <Tether>
0.000

$$$$
VeraChem MOL file


 25 24  0  0  0  0  0  0  0  0999 V2000     
   19.6948   19.0192   26.8427 C   0  0  0  0  0  0  0  0  0  0  0  0
   20.2250   19.1341   27.9304 O   0  5  0  0  0  0  0  0  0  0  0  0
   18.5597   19.3838   26.6066 O   0  0  0  0  0  0  0  0  0  0  0  0
   20.4920   18.3598   25.7205 C   0  0  0  0  0  0  0  0  0  0  0  0
   19.7924   18.0477   24.9388 H   0  0  0  0  0  0  0  0  0  0  0  0
   20.9321   17.4438   26.1315 H   0  0  0  0  0  0  0  0  0  0  0  0
   21.6206   19.2558   25.1383 C   0  0  0  0  0  0  0  0  0  0  0  0
   22.2521   19.5909   25.9729 H   0  0  0  0  0  0  0  0  0  0  0  0
   22.2731   18.6575   24.4882 H   0  0  0  0  0  0  0  0  0  0  0  0
   21.1110   20.5012   24.3669 C   0  0  0  0  0  0  0  0  0  0  0  0
   21.8152   21.3249   24.5467 H   0  0  0  0  0  0  0  0  0  0  0  0
   20.1485   20.8396   24.7744 H   0  0  0  0  0  0  0  0  0  0  0  0
   20.9983   20.3119   22.8333 C   0  0  0  0  0  0  0  0  0  0  0  0
   20.7070   21.2737   22.3894 H   0  0  0  0  0  0  0  0  0  0  0  0
   21.9872   20.0694   22.4210 H   0  0  0  0  0  0  0  0  0  0  0  0
   19.9823   19.2319   22.3995 C   0  0  0  0  0  0  0  0  0  0  0  0
   19.0171   19.4157   22.8913 H   0  0  0  0  0  0  0  0  0  0  0  0
   20.3322   18.2444   22.7265 H   0  0  0  0  0  0  0  0  0  0  0  0
   19.7870   19.2120   20.8688 C   0  0  0  0  0  0  0  0  0  0  0  0
   19.4301   20.1936   20.5275 H   0  0  0  0  0  0  0  0  0  0  0  0
   20.7522   19.0335   20.3749 H   0  0  0  0  0  0  0  0  0  0  0  0
   18.7821   18.1243   20.4389 C   0  0  0  0  0  0  0  0  0  0  0  0
   19.1301   17.1273   20.7393 H   0  0  0  0  0  0  0  0  0  0  0  0
   17.7986   18.2961   20.8956 H   0  0  0  0  0  0  0  0  0  0  0  0
   18.6545   18.1246   19.3486 H   0  0  0  0  0  0  0  0  0  0  0  0
  1  2  1  0  0  0  0
  1  3  2  0  0  0  0
  1  4  1  0  0  0  0
  4  5  1  0  0  0  0
  4  6  1  0  0  0  0
  4  7  1  0  0  0  0
  7  8  1  0  0  0  0
  7  9  1  0  0  0  0
  7 10  1  0  0  0  0
 10 11  1  0  0  0  0
 10 12  1  0  0  0  0
 10 13  1  0  0  0  0
 13 14  1  0  0  0  0
 13 15  1  0  0  0  0
 13 16  1  0  0  0  0
 16 17  1  0  0  0  0
 16 18  1  0  0  0  0
 16 19  1  0  0  0  0
 19 20  1  0  0  0  0
 19 21  1  0  0  0  0
 19 22  1  0  0  0  0
 22 23  1  0  0  0  0
 22 24  1  0  0  0  0
 22 25  1  0  0  0  0
M  END
> <VM2 Rank>
131

> <Conf_Id>
841

> <Probability>
0.00

> <Sum Probability>
99.96

> <Delta G>
5.393

> <G>
-2.569

> <E>
-27.716

> <-TS>
25.147

> <U+W>
-48.283

> <U>
11.916

> <W>
-60.200

> <W(PB)>
-62.622

> <W(SA)>
2.423

> <Valence>
10.867

> <Coulomb>
0.268

> <VdW>
0.781

> <VdW6>
-10.299

> <VdW12>
11.079

> <Bond>
0.238

> <Angle>
3.230

> <Pdih>
7.398

> <Idih>
0.001

> <Tether>
0.000

$$$$
VeraChem MOL file


 25 24  0  0  0  0  0  0  0  0999 V2000     
   20.4845   19.3606   27.0977 C   0  0  0  0  0  0  0  0  0  0  0  0
   21.6095   19.8044   26.9778 O   0  5  0  0  0  0  0  0  0  0  0  0
   19.6450   19.8450   27.8311 O   0  0  0  0  0  0  0  0  0  0  0  0
   20.1094   18.1149   26.3000 C   0  0  0  0  0  0  0  0  0  0  0  0
   19.6029   17.4262   26.9864 H   0  0  0  0  0  0  0  0  0  0  0  0
   21.0308   17.6176   25.9736 H   0  0  0  0  0  0  0  0  0  0  0  0
   19.1935   18.3986   25.0812 C   0  0  0  0  0  0  0  0  0  0  0  0
   18.8655   17.4422   24.6518 H   0  0  0  0  0  0  0  0  0  0  0  0
   18.2878   18.9207   25.4199 H   0  0  0  0  0  0  0  0  0  0  0  0
   19.9001   19.2310   23.9877 C   0  0  0  0  0  0  0  0  0  0  0  0
   20.8150   18.7148   23.6739 H   0  0  0  0  0  0  0  0  0  0  0  0
   20.2136   20.1973   24.4059 H   0  0  0  0  0  0  0  0  0  0  0  0
   18.9763   19.4772   22.7715 C   0  0  0  0  0  0  0  0  0  0  0  0
   18.6099   18.5228   22.3695 H   0  0  0  0  0  0  0  0  0  0  0  0
   18.0894   20.0228   23.1215 H   0  0  0  0  0  0  0  0  0  0  0  0
   19.6493   20.3040   21.6464 C   0  0  0  0  0  0  0  0  0  0  0  0
   20.4080   20.9765   22.0696 H   0  0  0  0  0  0  0  0  0  0  0  0
   18.8871   20.9574   21.2004 H   0  0  0  0  0  0  0  0  0  0  0  0
   20.2652   19.4595   20.5034 C   0  0  0  0  0  0  0  0  0  0  0  0
   19.4802   18.8552   20.0281 H   0  0  0  0  0  0  0  0  0  0  0  0
   20.6388   20.1424   19.7280 H   0  0  0  0  0  0  0  0  0  0  0  0
   21.4202   18.5389   20.9492 C   0  0  0  0  0  0  0  0  0  0  0  0
   21.0565   17.7363   21.6027 H   0  0  0  0  0  0  0  0  0  0  0  0
   21.8930   18.0670   20.0782 H   0  0  0  0  0  0  0  0  0  0  0  0
   22.1908   19.1058   21.4876 H   0  0  0  0  0  0  0  0  0  0  0  0
  1  2  1  0  0  0  0
  1  3  2  0  0  0  0
  1  4  1  0  0  0  0
  4  5  1  0  0  0  0
  4  6  1  0  0  0  0
  4  7  1  0  0  0  0
  7  8  1  0  0  0  0
  7  9  1  0  0  0  0
  7 10  1  0  0  0  0
 10 11  1  0  0  0  0
 10 12  1  0  0  0  0
 10 13  1  0  0  0  0
 13 14  1  0  0  0  0
 13 15  1  0  0  0  0
 13 16  1  0  0  0  0
 16 17  1  0  0  0  0
 16 18  1  0  0  0  0
 16 19  1  0  0  0  0
 19 20  1  0  0  0  0
 19 21  1  0  0  0  0
 19 22  1  0  0  0  0
 22 23  1  0  0  0  0
 22 24  1  0  0  0  0
 22 25  1  0  0  0  0
M  END
> <VM2 Rank>
132

> <Conf_Id>
702

> <Probability>
0.00

> <Sum Probability>
99.97

> <Delta G>
5.409

> <G>
-2.553

> <E>
-27.600

> <-TS>
25.047

> <U+W>
-48.168

> <U>
11.935

> <W>
-60.103

> <W(PB)>
-62.535

> <W(SA)>
2.432

> <Valence>
10.764

> <Coulomb>
0.351

> <VdW>
0.820

> <VdW6>
-10.096

> <VdW12>
10.916

> <Bond>
0.214

> <Angle>
3.144

> <Pdih>
7.405

> <Idih>
0.001

> <Tether>
0.000

$$$$
VeraChem MOL file


 25 24  0  0  0  0  0  0  0  0999 V2000     
   20.4113   18.7783   26.8462 C   0  0  0  0  0  0  0  0  0  0  0  0
   21.5818   18.9164   27.1430 O   0  5  0  0  0  0  0  0  0  0  0  0
   19.8576   17.6987   26.7764 O   0  0  0  0  0  0  0  0  0  0  0  0
   19.5874   20.0327   26.5691 C   0  0  0  0  0  0  0  0  0  0  0  0
   19.8061   20.7514   27.3676 H   0  0  0  0  0  0  0  0  0  0  0  0
   18.5238   19.7787   26.6529 H   0  0  0  0  0  0  0  0  0  0  0  0
   19.8754   20.6848   25.1919 C   0  0  0  0  0  0  0  0  0  0  0  0
   19.3484   21.6468   25.1353 H   0  0  0  0  0  0  0  0  0  0  0  0
   20.9487   20.9068   25.1120 H   0  0  0  0  0  0  0  0  0  0  0  0
   19.4372   19.7927   24.0087 C   0  0  0  0  0  0  0  0  0  0  0  0
   18.3663   19.5658   24.0998 H   0  0  0  0  0  0  0  0  0  0  0  0
   19.9653   18.8330   24.0595 H   0  0  0  0  0  0  0  0  0  0  0  0
   19.7030   20.4785   22.6479 C   0  0  0  0  0  0  0  0  0  0  0  0
   19.1295   21.4150   22.6188 H   0  0  0  0  0  0  0  0  0  0  0  0
   20.7604   20.7641   22.5639 H   0  0  0  0  0  0  0  0  0  0  0  0
   19.2892   19.6110   21.4319 C   0  0  0  0  0  0  0  0  0  0  0  0
   18.8894   20.2786   20.6564 H   0  0  0  0  0  0  0  0  0  0  0  0
   18.4619   18.9419   21.7051 H   0  0  0  0  0  0  0  0  0  0  0  0
   20.4435   18.7973   20.7959 C   0  0  0  0  0  0  0  0  0  0  0  0
   20.0592   18.2879   19.9014 H   0  0  0  0  0  0  0  0  0  0  0  0
   21.2277   19.4826   20.4459 H   0  0  0  0  0  0  0  0  0  0  0  0
   21.0666   17.7436   21.7350 C   0  0  0  0  0  0  0  0  0  0  0  0
   20.2959   17.0835   22.1537 H   0  0  0  0  0  0  0  0  0  0  0  0
   21.7868   17.1206   21.1893 H   0  0  0  0  0  0  0  0  0  0  0  0
   21.6043   18.2209   22.5639 H   0  0  0  0  0  0  0  0  0  0  0  0
  1  2  1  0  0  0  0
  1  3  2  0  0  0  0
  1  4  1  0  0  0  0
  4  5  1  0  0  0  0
  4  6  1  0  0  0  0
  4  7  1  0  0  0  0
  7  8  1  0  0  0  0
  7  9  1  0  0  0  0
  7 10  1  0  0  0  0
 10 11  1  0  0  0  0
 10 12  1  0  0  0  0
 10 13  1  0  0  0  0
 13 14  1  0  0  0  0
 13 15  1  0  0  0  0
 13 16  1  0  0  0  0
 16 17  1  0  0  0  0
 16 18  1  0  0  0  0
 16 19  1  0  0  0  0
 19 20  1  0  0  0  0
 19 21  1  0  0  0  0
 19 22  1  0  0  0  0
 22 23  1  0  0  0  0
 22 24  1  0  0  0  0
 22 25  1  0  0  0  0
M  END
> <VM2 Rank>
133

> <Conf_Id>
281

> <Probability>
0.00

> <Sum Probability>
99.97

> <Delta G>
5.486

> <G>
-2.476

> <E>
-27.537

> <-TS>
25.060

> <U+W>
-48.104

> <U>
12.640

> <W>
-60.745

> <W(PB)>
-63.148

> <W(SA)>
2.403

> <Valence>
10.756

> <Coulomb>
1.146

> <VdW>
0.738

> <VdW6>
-10.212

> <VdW12>
10.950

> <Bond>
0.214

> <Angle>
3.128

> <Pdih>
7.413

> <Idih>
0.001

> <Tether>
0.000

$$$$
VeraChem MOL file


 25 24  0  0  0  0  0  0  0  0999 V2000     
   20.4752   19.7410   26.8204 C   0  0  0  0  0  0  0  0  0  0  0  0
   21.5702   20.1903   26.5446 O   0  5  0  0  0  0  0  0  0  0  0  0
   19.5991   20.3875   27.3605 O   0  0  0  0  0  0  0  0  0  0  0  0
   20.1901   18.2780   26.4922 C   0  0  0  0  0  0  0  0  0  0  0  0
   19.7300   17.8267   27.3791 H   0  0  0  0  0  0  0  0  0  0  0  0
   21.1450   17.7628   26.3326 H   0  0  0  0  0  0  0  0  0  0  0  0
   19.2615   18.0757   25.2667 C   0  0  0  0  0  0  0  0  0  0  0  0
   19.0035   17.0110   25.1877 H   0  0  0  0  0  0  0  0  0  0  0  0
   18.3200   18.6185   25.4295 H   0  0  0  0  0  0  0  0  0  0  0  0
   19.9126   18.5428   23.9454 C   0  0  0  0  0  0  0  0  0  0  0  0
   20.8582   18.0056   23.7909 H   0  0  0  0  0  0  0  0  0  0  0  0
   20.1547   19.6107   24.0219 H   0  0  0  0  0  0  0  0  0  0  0  0
   18.9807   18.3112   22.7353 C   0  0  0  0  0  0  0  0  0  0  0  0
   18.6443   17.2655   22.7389 H   0  0  0  0  0  0  0  0  0  0  0  0
   18.0773   18.9259   22.8481 H   0  0  0  0  0  0  0  0  0  0  0  0
   19.6352   18.6047   21.3617 C   0  0  0  0  0  0  0  0  0  0  0  0
   18.9006   18.3503   20.5855 H   0  0  0  0  0  0  0  0  0  0  0  0
   20.4869   17.9304   21.1984 H   0  0  0  0  0  0  0  0  0  0  0  0
   20.0685   20.0770   21.1503 C   0  0  0  0  0  0  0  0  0  0  0  0
   19.8971   20.3456   20.0988 H   0  0  0  0  0  0  0  0  0  0  0  0
   19.4348   20.7497   21.7446 H   0  0  0  0  0  0  0  0  0  0  0  0
   21.5599   20.3258   21.4688 C   0  0  0  0  0  0  0  0  0  0  0  0
   22.2039   19.7050   20.8326 H   0  0  0  0  0  0  0  0  0  0  0  0
   21.8209   21.3763   21.2868 H   0  0  0  0  0  0  0  0  0  0  0  0
   21.7980   20.0992   22.5144 H   0  0  0  0  0  0  0  0  0  0  0  0
  1  2  1  0  0  0  0
  1  3  2  0  0  0  0
  1  4  1  0  0  0  0
  4  5  1  0  0  0  0
  4  6  1  0  0  0  0
  4  7  1  0  0  0  0
  7  8  1  0  0  0  0
  7  9  1  0  0  0  0
  7 10  1  0  0  0  0
 10 11  1  0  0  0  0
 10 12  1  0  0  0  0
 10 13  1  0  0  0  0
 13 14  1  0  0  0  0
 13 15  1  0  0  0  0
 13 16  1  0  0  0  0
 16 17  1  0  0  0  0
 16 18  1  0  0  0  0
 16 19  1  0  0  0  0
 19 20  1  0  0  0  0
 19 21  1  0  0  0  0
 19 22  1  0  0  0  0
 22 23  1  0  0  0  0
 22 24  1  0  0  0  0
 22 25  1  0  0  0  0
M  END
> <VM2 Rank>
134

> <Conf_Id>
1099

> <Probability>
0.00

> <Sum Probability>
99.97

> <Delta G>
5.489

> <G>
-2.473

> <E>
-27.532

> <-TS>
25.059

> <U+W>
-48.100

> <U>
12.669

> <W>
-60.769

> <W(PB)>
-63.191

> <W(SA)>
2.422

> <Valence>
10.772

> <Coulomb>
1.133

> <VdW>
0.765

> <VdW6>
-10.207

> <VdW12>
10.971

> <Bond>
0.213

> <Angle>
3.170

> <Pdih>
7.388

> <Idih>
0.001

> <Tether>
0.000

$$$$
VeraChem MOL file


 25 24  0  0  0  0  0  0  0  0999 V2000     
   20.6618   19.0276   26.6865 C   0  0  0  0  0  0  0  0  0  0  0  0
   21.8558   19.1632   26.5048 O   0  5  0  0  0  0  0  0  0  0  0  0
   20.1561   18.0030   27.1007 O   0  0  0  0  0  0  0  0  0  0  0  0
   19.7515   20.2188   26.4007 C   0  0  0  0  0  0  0  0  0  0  0  0
   20.2174   21.1026   26.8520 H   0  0  0  0  0  0  0  0  0  0  0  0
   18.7969   20.0633   26.9178 H   0  0  0  0  0  0  0  0  0  0  0  0
   19.5089   20.4751   24.8909 C   0  0  0  0  0  0  0  0  0  0  0  0
   18.9741   21.4271   24.7734 H   0  0  0  0  0  0  0  0  0  0  0  0
   20.4762   20.5985   24.3890 H   0  0  0  0  0  0  0  0  0  0  0  0
   18.6855   19.3466   24.2231 C   0  0  0  0  0  0  0  0  0  0  0  0
   17.7106   19.2907   24.7262 H   0  0  0  0  0  0  0  0  0  0  0  0
   19.1660   18.3714   24.3820 H   0  0  0  0  0  0  0  0  0  0  0  0
   18.4476   19.5775   22.7093 C   0  0  0  0  0  0  0  0  0  0  0  0
   17.4383   19.2206   22.4630 H   0  0  0  0  0  0  0  0  0  0  0  0
   18.4475   20.6524   22.4826 H   0  0  0  0  0  0  0  0  0  0  0  0
   19.4431   18.8383   21.7799 C   0  0  0  0  0  0  0  0  0  0  0  0
   19.1397   19.0155   20.7391 H   0  0  0  0  0  0  0  0  0  0  0  0
   19.3599   17.7554   21.9448 H   0  0  0  0  0  0  0  0  0  0  0  0
   20.9157   19.2701   21.9535 C   0  0  0  0  0  0  0  0  0  0  0  0
   20.9943   20.3631   21.8760 H   0  0  0  0  0  0  0  0  0  0  0  0
   21.2715   18.9883   22.9537 H   0  0  0  0  0  0  0  0  0  0  0  0
   21.8270   18.6137   20.8966 C   0  0  0  0  0  0  0  0  0  0  0  0
   21.5235   18.9021   19.8817 H   0  0  0  0  0  0  0  0  0  0  0  0
   22.8701   18.9243   21.0394 H   0  0  0  0  0  0  0  0  0  0  0  0
   21.7863   17.5190   20.9691 H   0  0  0  0  0  0  0  0  0  0  0  0
  1  2  1  0  0  0  0
  1  3  2  0  0  0  0
  1  4  1  0  0  0  0
  4  5  1  0  0  0  0
  4  6  1  0  0  0  0
  4  7  1  0  0  0  0
  7  8  1  0  0  0  0
  7  9  1  0  0  0  0
  7 10  1  0  0  0  0
 10 11  1  0  0  0  0
 10 12  1  0  0  0  0
 10 13  1  0  0  0  0
 13 14  1  0  0  0  0
 13 15  1  0  0  0  0
 13 16  1  0  0  0  0
 16 17  1  0  0  0  0
 16 18  1  0  0  0  0
 16 19  1  0  0  0  0
 19 20  1  0  0  0  0
 19 21  1  0  0  0  0
 19 22  1  0  0  0  0
 22 23  1  0  0  0  0
 22 24  1  0  0  0  0
 22 25  1  0  0  0  0
M  END
> <VM2 Rank>
135

> <Conf_Id>
743

> <Probability>
0.00

> <Sum Probability>
99.97

> <Delta G>
5.492

> <G>
-2.471

> <E>
-27.597

> <-TS>
25.126

> <U+W>
-48.165

> <U>
12.689

> <W>
-60.854

> <W(PB)>
-63.278

> <W(SA)>
2.424

> <Valence>
10.791

> <Coulomb>
1.261

> <VdW>
0.637

> <VdW6>
-10.463

> <VdW12>
11.099

> <Bond>
0.216

> <Angle>
3.125

> <Pdih>
7.449

> <Idih>
0.001

> <Tether>
0.000

$$$$
VeraChem MOL file


 25 24  0  0  0  0  0  0  0  0999 V2000     
   19.7739   19.6961   26.8285 C   0  0  0  0  0  0  0  0  0  0  0  0
   20.5726   20.4499   27.3491 O   0  5  0  0  0  0  0  0  0  0  0  0
   18.6245   20.0016   26.5786 O   0  0  0  0  0  0  0  0  0  0  0  0
   20.2356   18.2809   26.4917 C   0  0  0  0  0  0  0  0  0  0  0  0
   19.3507   17.6478   26.3535 H   0  0  0  0  0  0  0  0  0  0  0  0
   20.7698   17.8934   27.3671 H   0  0  0  0  0  0  0  0  0  0  0  0
   21.1539   18.1967   25.2449 C   0  0  0  0  0  0  0  0  0  0  0  0
   22.0221   18.8554   25.3866 H   0  0  0  0  0  0  0  0  0  0  0  0
   21.5437   17.1735   25.1584 H   0  0  0  0  0  0  0  0  0  0  0  0
   20.4183   18.5751   23.9396 C   0  0  0  0  0  0  0  0  0  0  0  0
   20.0439   19.6036   24.0232 H   0  0  0  0  0  0  0  0  0  0  0  0
   19.5456   17.9216   23.8062 H   0  0  0  0  0  0  0  0  0  0  0  0
   21.3439   18.4623   22.7079 C   0  0  0  0  0  0  0  0  0  0  0  0
   22.1641   19.1873   22.8008 H   0  0  0  0  0  0  0  0  0  0  0  0
   21.8108   17.4680   22.7022 H   0  0  0  0  0  0  0  0  0  0  0  0
   20.6259   18.6680   21.3503 C   0  0  0  0  0  0  0  0  0  0  0  0
   19.8634   17.8905   21.2057 H   0  0  0  0  0  0  0  0  0  0  0  0
   21.3688   18.5081   20.5569 H   0  0  0  0  0  0  0  0  0  0  0  0
   20.0038   20.0729   21.1511 C   0  0  0  0  0  0  0  0  0  0  0  0
   20.5603   20.8217   21.7315 H   0  0  0  0  0  0  0  0  0  0  0  0
   20.1153   20.3595   20.0963 H   0  0  0  0  0  0  0  0  0  0  0  0
   18.5007   20.1303   21.5043 C   0  0  0  0  0  0  0  0  0  0  0  0
   17.9264   19.4315   20.8823 H   0  0  0  0  0  0  0  0  0  0  0  0
   18.3176   19.8768   22.5548 H   0  0  0  0  0  0  0  0  0  0  0  0
   18.1039   21.1387   21.3299 H   0  0  0  0  0  0  0  0  0  0  0  0
  1  2  1  0  0  0  0
  1  3  2  0  0  0  0
  1  4  1  0  0  0  0
  4  5  1  0  0  0  0
  4  6  1  0  0  0  0
  4  7  1  0  0  0  0
  7  8  1  0  0  0  0
  7  9  1  0  0  0  0
  7 10  1  0  0  0  0
 10 11  1  0  0  0  0
 10 12  1  0  0  0  0
 10 13  1  0  0  0  0
 13 14  1  0  0  0  0
 13 15  1  0  0  0  0
 13 16  1  0  0  0  0
 16 17  1  0  0  0  0
 16 18  1  0  0  0  0
 16 19  1  0  0  0  0
 19 20  1  0  0  0  0
 19 21  1  0  0  0  0
 19 22  1  0  0  0  0
 22 23  1  0  0  0  0
 22 24  1  0  0  0  0
 22 25  1  0  0  0  0
M  END
> <VM2 Rank>
136

> <Conf_Id>
285

> <Probability>
0.00

> <Sum Probability>
99.97

> <Delta G>
5.492

> <G>
-2.470

> <E>
-27.529

> <-TS>
25.059

> <U+W>
-48.096

> <U>
12.669

> <W>
-60.766

> <W(PB)>
-63.199

> <W(SA)>
2.434

> <Valence>
10.771

> <Coulomb>
1.133

> <VdW>
0.765

> <VdW6>
-10.207

> <VdW12>
10.972

> <Bond>
0.213

> <Angle>
3.170

> <Pdih>
7.388

> <Idih>
0.001

> <Tether>
0.000

$$$$
VeraChem MOL file


 25 24  0  0  0  0  0  0  0  0999 V2000     
   19.9589   18.7500   26.8514 C   0  0  0  0  0  0  0  0  0  0  0  0
   20.6407   17.7474   26.7674 O   0  5  0  0  0  0  0  0  0  0  0  0
   18.7875   18.7421   27.1754 O   0  0  0  0  0  0  0  0  0  0  0  0
   20.6141   20.0967   26.5572 C   0  0  0  0  0  0  0  0  0  0  0  0
   21.7026   19.9768   26.6159 H   0  0  0  0  0  0  0  0  0  0  0  0
   20.3263   20.7837   27.3617 H   0  0  0  0  0  0  0  0  0  0  0  0
   20.2154   20.7060   25.1880 C   0  0  0  0  0  0  0  0  0  0  0  0
   19.1213   20.7927   25.1333 H   0  0  0  0  0  0  0  0  0  0  0  0
   20.6174   21.7260   25.1208 H   0  0  0  0  0  0  0  0  0  0  0  0
   20.7337   19.8737   23.9937 C   0  0  0  0  0  0  0  0  0  0  0  0
   20.3305   18.8558   24.0553 H   0  0  0  0  0  0  0  0  0  0  0  0
   21.8263   19.7820   24.0596 H   0  0  0  0  0  0  0  0  0  0  0  0
   20.3532   20.5192   22.6404 C   0  0  0  0  0  0  0  0  0  0  0  0
   19.2667   20.6707   22.5814 H   0  0  0  0  0  0  0  0  0  0  0  0
   20.8047   21.5198   22.5995 H   0  0  0  0  0  0  0  0  0  0  0  0
   20.8436   19.7084   21.4138 C   0  0  0  0  0  0  0  0  0  0  0  0
   21.7540   19.1480   21.6668 H   0  0  0  0  0  0  0  0  0  0  0  0
   21.1390   20.4195   20.6303 H   0  0  0  0  0  0  0  0  0  0  0  0
   19.7854   18.7562   20.8035 C   0  0  0  0  0  0  0  0  0  0  0  0
   18.9139   19.3379   20.4728 H   0  0  0  0  0  0  0  0  0  0  0  0
   20.2093   18.2975   19.8995 H   0  0  0  0  0  0  0  0  0  0  0  0
   19.3205   17.6343   21.7552 C   0  0  0  0  0  0  0  0  0  0  0  0
   18.7468   18.0419   22.5970 H   0  0  0  0  0  0  0  0  0  0  0  0
   18.6712   16.9256   21.2253 H   0  0  0  0  0  0  0  0  0  0  0  0
   20.1771   17.0761   22.1548 H   0  0  0  0  0  0  0  0  0  0  0  0
  1  2  1  0  0  0  0
  1  3  2  0  0  0  0
  1  4  1  0  0  0  0
  4  5  1  0  0  0  0
  4  6  1  0  0  0  0
  4  7  1  0  0  0  0
  7  8  1  0  0  0  0
  7  9  1  0  0  0  0
  7 10  1  0  0  0  0
 10 11  1  0  0  0  0
 10 12  1  0  0  0  0
 10 13  1  0  0  0  0
 13 14  1  0  0  0  0
 13 15  1  0  0  0  0
 13 16  1  0  0  0  0
 16 17  1  0  0  0  0
 16 18  1  0  0  0  0
 16 19  1  0  0  0  0
 19 20  1  0  0  0  0
 19 21  1  0  0  0  0
 19 22  1  0  0  0  0
 22 23  1  0  0  0  0
 22 24  1  0  0  0  0
 22 25  1  0  0  0  0
M  END
> <VM2 Rank>
137

> <Conf_Id>
796

> <Probability>
0.00

> <Sum Probability>
99.98

> <Delta G>
5.532

> <G>
-2.430

> <E>
-27.491

> <-TS>
25.060

> <U+W>
-48.058

> <U>
12.640

> <W>
-60.699

> <W(PB)>
-63.101

> <W(SA)>
2.402

> <Valence>
10.756

> <Coulomb>
1.146

> <VdW>
0.738

> <VdW6>
-10.212

> <VdW12>
10.950

> <Bond>
0.214

> <Angle>
3.129

> <Pdih>
7.413

> <Idih>
0.001

> <Tether>
0.000

$$$$
VeraChem MOL file


 25 24  0  0  0  0  0  0  0  0999 V2000     
   19.6760   18.9654   26.6977 C   0  0  0  0  0  0  0  0  0  0  0  0
   20.3157   18.0130   27.0987 O   0  5  0  0  0  0  0  0  0  0  0  0
   18.4706   18.9498   26.5435 O   0  0  0  0  0  0  0  0  0  0  0  0
   20.4228   20.2611   26.3930 C   0  0  0  0  0  0  0  0  0  0  0  0
   21.4010   20.2273   26.8878 H   0  0  0  0  0  0  0  0  0  0  0  0
   19.8602   21.0800   26.8563 H   0  0  0  0  0  0  0  0  0  0  0  0
   20.5966   20.5438   24.8784 C   0  0  0  0  0  0  0  0  0  0  0  0
   19.6102   20.5441   24.3990 H   0  0  0  0  0  0  0  0  0  0  0  0
   21.0048   21.5553   24.7502 H   0  0  0  0  0  0  0  0  0  0  0  0
   21.5396   19.5268   24.1901 C   0  0  0  0  0  0  0  0  0  0  0  0
   21.1892   18.4991   24.3586 H   0  0  0  0  0  0  0  0  0  0  0  0
   22.5252   19.5945   24.6706 H   0  0  0  0  0  0  0  0  0  0  0  0
   21.7116   19.7836   22.6715 C   0  0  0  0  0  0  0  0  0  0  0  0
   21.5714   20.8496   22.4465 H   0  0  0  0  0  0  0  0  0  0  0  0
   22.7519   19.5560   22.4016 H   0  0  0  0  0  0  0  0  0  0  0  0
   20.7957   18.9238   21.7643 C   0  0  0  0  0  0  0  0  0  0  0  0
   21.0183   17.8601   21.9256 H   0  0  0  0  0  0  0  0  0  0  0  0
   21.0503   19.1362   20.7170 H   0  0  0  0  0  0  0  0  0  0  0  0
   19.2849   19.1671   21.9726 C   0  0  0  0  0  0  0  0  0  0  0  0
   18.9907   18.8444   22.9804 H   0  0  0  0  0  0  0  0  0  0  0  0
   19.0677   20.2414   21.8984 H   0  0  0  0  0  0  0  0  0  0  0  0
   18.4393   18.3997   20.9362 C   0  0  0  0  0  0  0  0  0  0  0  0
   17.3690   18.5769   21.1035 H   0  0  0  0  0  0  0  0  0  0  0  0
   18.6805   18.7224   19.9149 H   0  0  0  0  0  0  0  0  0  0  0  0
   18.6190   17.3189   21.0062 H   0  0  0  0  0  0  0  0  0  0  0  0
  1  2  1  0  0  0  0
  1  3  2  0  0  0  0
  1  4  1  0  0  0  0
  4  5  1  0  0  0  0
  4  6  1  0  0  0  0
  4  7  1  0  0  0  0
  7  8  1  0  0  0  0
  7  9  1  0  0  0  0
  7 10  1  0  0  0  0
 10 11  1  0  0  0  0
 10 12  1  0  0  0  0
 10 13  1  0  0  0  0
 13 14  1  0  0  0  0
 13 15  1  0  0  0  0
 13 16  1  0  0  0  0
 16 17  1  0  0  0  0
 16 18  1  0  0  0  0
 16 19  1  0  0  0  0
 19 20  1  0  0  0  0
 19 21  1  0  0  0  0
 19 22  1  0  0  0  0
 22 23  1  0  0  0  0
 22 24  1  0  0  0  0
 22 25  1  0  0  0  0
M  END
> <VM2 Rank>
138

> <Conf_Id>
561

> <Probability>
0.00

> <Sum Probability>
99.98

> <Delta G>
5.581

> <G>
-2.382

> <E>
-27.508

> <-TS>
25.127

> <U+W>
-48.076

> <U>
12.690

> <W>
-60.766

> <W(PB)>
-63.197

> <W(SA)>
2.432

> <Valence>
10.791

> <Coulomb>
1.261

> <VdW>
0.637

> <VdW6>
-10.463

> <VdW12>
11.100

> <Bond>
0.216

> <Angle>
3.124

> <Pdih>
7.450

> <Idih>
0.001

> <Tether>
0.000

$$$$
VeraChem MOL file


 25 24  0  0  0  0  0  0  0  0999 V2000     
   20.2232   19.7562   27.1087 C   0  0  0  0  0  0  0  0  0  0  0  0
   21.3113   19.8942   27.6320 O   0  5  0  0  0  0  0  0  0  0  0  0
   19.1776   19.7299   27.7274 O   0  0  0  0  0  0  0  0  0  0  0  0
   20.1691   19.5837   25.5950 C   0  0  0  0  0  0  0  0  0  0  0  0
   21.0043   20.1434   25.1573 H   0  0  0  0  0  0  0  0  0  0  0  0
   19.2398   20.0451   25.2441 H   0  0  0  0  0  0  0  0  0  0  0  0
   20.2297   18.0986   25.1578 C   0  0  0  0  0  0  0  0  0  0  0  0
   21.0749   17.6170   25.6688 H   0  0  0  0  0  0  0  0  0  0  0  0
   19.3254   17.5815   25.5070 H   0  0  0  0  0  0  0  0  0  0  0  0
   20.3971   17.8850   23.6322 C   0  0  0  0  0  0  0  0  0  0  0  0
   20.4788   16.8028   23.4620 H   0  0  0  0  0  0  0  0  0  0  0  0
   21.3535   18.3046   23.2990 H   0  0  0  0  0  0  0  0  0  0  0  0
   19.2231   18.4137   22.7648 C   0  0  0  0  0  0  0  0  0  0  0  0
   19.0885   17.7396   21.9092 H   0  0  0  0  0  0  0  0  0  0  0  0
   18.2887   18.3399   23.3374 H   0  0  0  0  0  0  0  0  0  0  0  0
   19.3807   19.8637   22.2291 C   0  0  0  0  0  0  0  0  0  0  0  0
   19.4543   20.5667   23.0662 H   0  0  0  0  0  0  0  0  0  0  0  0
   18.4592   20.1344   21.6963 H   0  0  0  0  0  0  0  0  0  0  0  0
   20.5813   20.1019   21.2785 C   0  0  0  0  0  0  0  0  0  0  0  0
   20.5688   21.1537   20.9616 H   0  0  0  0  0  0  0  0  0  0  0  0
   21.5285   19.9623   21.8150 H   0  0  0  0  0  0  0  0  0  0  0  0
   20.5599   19.2071   20.0204 C   0  0  0  0  0  0  0  0  0  0  0  0
   19.6076   19.3063   19.4834 H   0  0  0  0  0  0  0  0  0  0  0  0
   21.3673   19.4912   19.3334 H   0  0  0  0  0  0  0  0  0  0  0  0
   20.7021   18.1507   20.2805 H   0  0  0  0  0  0  0  0  0  0  0  0
  1  2  1  0  0  0  0
  1  3  2  0  0  0  0
  1  4  1  0  0  0  0
  4  5  1  0  0  0  0
  4  6  1  0  0  0  0
  4  7  1  0  0  0  0
  7  8  1  0  0  0  0
  7  9  1  0  0  0  0
  7 10  1  0  0  0  0
 10 11  1  0  0  0  0
 10 12  1  0  0  0  0
 10 13  1  0  0  0  0
 13 14  1  0  0  0  0
 13 15  1  0  0  0  0
 13 16  1  0  0  0  0
 16 17  1  0  0  0  0
 16 18  1  0  0  0  0
 16 19  1  0  0  0  0
 19 20  1  0  0  0  0
 19 21  1  0  0  0  0
 19 22  1  0  0  0  0
 22 23  1  0  0  0  0
 22 24  1  0  0  0  0
 22 25  1  0  0  0  0
M  END
> <VM2 Rank>
139

> <Conf_Id>
225

> <Probability>
0.00

> <Sum Probability>
99.98

> <Delta G>
5.609

> <G>
-2.353

> <E>
-27.057

> <-TS>
24.704

> <U+W>
-47.625

> <U>
11.838

> <W>
-59.463

> <W(PB)>
-61.851

> <W(SA)>
2.388

> <Valence>
11.761

> <Coulomb>
-1.045

> <VdW>
1.122

> <VdW6>
-10.752

> <VdW12>
11.875

> <Bond>
0.310

> <Angle>
4.049

> <Pdih>
7.401

> <Idih>
0.001

> <Tether>
0.000

$$$$
VeraChem MOL file


 25 24  0  0  0  0  0  0  0  0999 V2000     
   20.1409   18.8997   26.7863 C   0  0  0  0  0  0  0  0  0  0  0  0
   21.1938   18.3164   26.9549 O   0  5  0  0  0  0  0  0  0  0  0  0
   19.0538   18.3863   26.9663 O   0  0  0  0  0  0  0  0  0  0  0  0
   20.1901   20.3748   26.3928 C   0  0  0  0  0  0  0  0  0  0  0  0
   21.2379   20.6918   26.3262 H   0  0  0  0  0  0  0  0  0  0  0  0
   19.7472   20.9302   27.2276 H   0  0  0  0  0  0  0  0  0  0  0  0
   19.4322   20.7389   25.0850 C   0  0  0  0  0  0  0  0  0  0  0  0
   18.4606   20.2262   25.0588 H   0  0  0  0  0  0  0  0  0  0  0  0
   19.2053   21.8131   25.1142 H   0  0  0  0  0  0  0  0  0  0  0  0
   20.2151   20.4598   23.7777 C   0  0  0  0  0  0  0  0  0  0  0  0
   21.1852   20.9739   23.8099 H   0  0  0  0  0  0  0  0  0  0  0  0
   19.6520   20.9116   22.9514 H   0  0  0  0  0  0  0  0  0  0  0  0
   20.4319   18.9561   23.4815 C   0  0  0  0  0  0  0  0  0  0  0  0
   21.0389   18.5138   24.2806 H   0  0  0  0  0  0  0  0  0  0  0  0
   19.4693   18.4289   23.5023 H   0  0  0  0  0  0  0  0  0  0  0  0
   21.1582   18.6859   22.1389 C   0  0  0  0  0  0  0  0  0  0  0  0
   21.3365   17.6057   22.0500 H   0  0  0  0  0  0  0  0  0  0  0  0
   22.1513   19.1543   22.1716 H   0  0  0  0  0  0  0  0  0  0  0  0
   20.4182   19.1724   20.8678 C   0  0  0  0  0  0  0  0  0  0  0  0
   20.3348   20.2670   20.8715 H   0  0  0  0  0  0  0  0  0  0  0  0
   21.0295   18.9196   19.9906 H   0  0  0  0  0  0  0  0  0  0  0  0
   19.0187   18.5437   20.6948 C   0  0  0  0  0  0  0  0  0  0  0  0
   18.5780   18.8446   19.7356 H   0  0  0  0  0  0  0  0  0  0  0  0
   19.0753   17.4476   20.7129 H   0  0  0  0  0  0  0  0  0  0  0  0
   18.3357   18.8673   21.4904 H   0  0  0  0  0  0  0  0  0  0  0  0
  1  2  1  0  0  0  0
  1  3  2  0  0  0  0
  1  4  1  0  0  0  0
  4  5  1  0  0  0  0
  4  6  1  0  0  0  0
  4  7  1  0  0  0  0
  7  8  1  0  0  0  0
  7  9  1  0  0  0  0
  7 10  1  0  0  0  0
 10 11  1  0  0  0  0
 10 12  1  0  0  0  0
 10 13  1  0  0  0  0
 13 14  1  0  0  0  0
 13 15  1  0  0  0  0
 13 16  1  0  0  0  0
 16 17  1  0  0  0  0
 16 18  1  0  0  0  0
 16 19  1  0  0  0  0
 19 20  1  0  0  0  0
 19 21  1  0  0  0  0
 19 22  1  0  0  0  0
 22 23  1  0  0  0  0
 22 24  1  0  0  0  0
 22 25  1  0  0  0  0
M  END
> <VM2 Rank>
140

> <Conf_Id>
90

> <Probability>
0.00

> <Sum Probability>
99.98

> <Delta G>
5.677

> <G>
-2.286

> <E>
-27.599

> <-TS>
25.314

> <U+W>
-48.167

> <U>
12.473

> <W>
-60.640

> <W(PB)>
-63.030

> <W(SA)>
2.391

> <Valence>
10.551

> <Coulomb>
1.040

> <VdW>
0.882

> <VdW6>
-11.389

> <VdW12>
12.271

> <Bond>
0.286

> <Angle>
3.973

> <Pdih>
6.285

> <Idih>
0.006

> <Tether>
0.000

$$$$
VeraChem MOL file


 25 24  0  0  0  0  0  0  0  0999 V2000     
   19.6667   19.0497   26.5470 C   0  0  0  0  0  0  0  0  0  0  0  0
   20.4145   18.3202   27.1686 O   0  5  0  0  0  0  0  0  0  0  0  0
   18.5184   18.7586   26.2755 O   0  0  0  0  0  0  0  0  0  0  0  0
   20.1725   20.4340   26.1455 C   0  0  0  0  0  0  0  0  0  0  0  0
   20.3738   20.9717   27.0792 H   0  0  0  0  0  0  0  0  0  0  0  0
   19.3639   20.9751   25.6394 H   0  0  0  0  0  0  0  0  0  0  0  0
   21.4565   20.4431   25.2690 C   0  0  0  0  0  0  0  0  0  0  0  0
   21.9117   21.4399   25.3447 H   0  0  0  0  0  0  0  0  0  0  0  0
   22.1958   19.7413   25.6794 H   0  0  0  0  0  0  0  0  0  0  0  0
   21.2172   20.1464   23.7679 C   0  0  0  0  0  0  0  0  0  0  0  0
   22.1537   20.3357   23.2259 H   0  0  0  0  0  0  0  0  0  0  0  0
   20.4795   20.8563   23.3711 H   0  0  0  0  0  0  0  0  0  0  0  0
   20.7605   18.6963   23.4789 C   0  0  0  0  0  0  0  0  0  0  0  0
   21.4184   17.9989   24.0150 H   0  0  0  0  0  0  0  0  0  0  0  0
   19.7519   18.5323   23.8768 H   0  0  0  0  0  0  0  0  0  0  0  0
   20.7835   18.3347   21.9723 C   0  0  0  0  0  0  0  0  0  0  0  0
   20.4870   17.2832   21.8577 H   0  0  0  0  0  0  0  0  0  0  0  0
   21.8171   18.3997   21.6063 H   0  0  0  0  0  0  0  0  0  0  0  0
   19.8791   19.2113   21.0708 C   0  0  0  0  0  0  0  0  0  0  0  0
   20.2178   20.2555   21.0964 H   0  0  0  0  0  0  0  0  0  0  0  0
   19.9956   18.8796   20.0299 H   0  0  0  0  0  0  0  0  0  0  0  0
   18.3842   19.1397   21.4506 C   0  0  0  0  0  0  0  0  0  0  0  0
   17.7772   19.7056   20.7323 H   0  0  0  0  0  0  0  0  0  0  0  0
   18.0284   18.1013   21.4514 H   0  0  0  0  0  0  0  0  0  0  0  0
   18.2049   19.5655   22.4462 H   0  0  0  0  0  0  0  0  0  0  0  0
  1  2  1  0  0  0  0
  1  3  2  0  0  0  0
  1  4  1  0  0  0  0
  4  5  1  0  0  0  0
  4  6  1  0  0  0  0
  4  7  1  0  0  0  0
  7  8  1  0  0  0  0
  7  9  1  0  0  0  0
  7 10  1  0  0  0  0
 10 11  1  0  0  0  0
 10 12  1  0  0  0  0
 10 13  1  0  0  0  0
 13 14  1  0  0  0  0
 13 15  1  0  0  0  0
 13 16  1  0  0  0  0
 16 17  1  0  0  0  0
 16 18  1  0  0  0  0
 16 19  1  0  0  0  0
 19 20  1  0  0  0  0
 19 21  1  0  0  0  0
 19 22  1  0  0  0  0
 22 23  1  0  0  0  0
 22 24  1  0  0  0  0
 22 25  1  0  0  0  0
M  END
> <VM2 Rank>
141

> <Conf_Id>
529

> <Probability>
0.00

> <Sum Probability>
99.98

> <Delta G>
5.811

> <G>
-2.151

> <E>
-27.595

> <-TS>
25.443

> <U+W>
-48.162

> <U>
12.721

> <W>
-60.883

> <W(PB)>
-63.249

> <W(SA)>
2.365

> <Valence>
10.326

> <Coulomb>
1.750

> <VdW>
0.646

> <VdW6>
-11.745

> <VdW12>
12.391

> <Bond>
0.275

> <Angle>
3.728

> <Pdih>
6.316

> <Idih>
0.007

> <Tether>
0.000

$$$$
VeraChem MOL file


 25 24  0  0  0  0  0  0  0  0999 V2000     
   20.4738   18.9286   26.9441 C   0  0  0  0  0  0  0  0  0  0  0  0
   21.5532   19.4377   27.1729 O   0  5  0  0  0  0  0  0  0  0  0  0
   19.7270   18.5166   27.8098 O   0  0  0  0  0  0  0  0  0  0  0  0
   20.0223   18.8187   25.4923 C   0  0  0  0  0  0  0  0  0  0  0  0
   19.4047   17.9177   25.3975 H   0  0  0  0  0  0  0  0  0  0  0  0
   20.9145   18.6624   24.8793 H   0  0  0  0  0  0  0  0  0  0  0  0
   19.2272   20.0628   25.0163 C   0  0  0  0  0  0  0  0  0  0  0  0
   18.3742   20.1951   25.6963 H   0  0  0  0  0  0  0  0  0  0  0  0
   19.8429   20.9667   25.1209 H   0  0  0  0  0  0  0  0  0  0  0  0
   18.6842   19.9470   23.5686 C   0  0  0  0  0  0  0  0  0  0  0  0
   17.7333   20.4952   23.5251 H   0  0  0  0  0  0  0  0  0  0  0  0
   18.4303   18.9052   23.3331 H   0  0  0  0  0  0  0  0  0  0  0  0
   19.6063   20.5489   22.4756 C   0  0  0  0  0  0  0  0  0  0  0  0
   19.0577   20.5650   21.5249 H   0  0  0  0  0  0  0  0  0  0  0  0
   19.8000   21.6024   22.7185 H   0  0  0  0  0  0  0  0  0  0  0  0
   20.9648   19.8348   22.2584 C   0  0  0  0  0  0  0  0  0  0  0  0
   21.5790   19.9404   23.1612 H   0  0  0  0  0  0  0  0  0  0  0  0
   21.5136   20.3655   21.4687 H   0  0  0  0  0  0  0  0  0  0  0  0
   20.8676   18.3381   21.8707 C   0  0  0  0  0  0  0  0  0  0  0  0
   21.8847   17.9314   21.7873 H   0  0  0  0  0  0  0  0  0  0  0  0
   20.3764   17.7683   22.6697 H   0  0  0  0  0  0  0  0  0  0  0  0
   20.1266   18.1007   20.5372 C   0  0  0  0  0  0  0  0  0  0  0  0
   19.0711   18.3914   20.6110 H   0  0  0  0  0  0  0  0  0  0  0  0
   20.5871   18.6761   19.7237 H   0  0  0  0  0  0  0  0  0  0  0  0
   20.1608   17.0386   20.2625 H   0  0  0  0  0  0  0  0  0  0  0  0
  1  2  1  0  0  0  0
  1  3  2  0  0  0  0
  1  4  1  0  0  0  0
  4  5  1  0  0  0  0
  4  6  1  0  0  0  0
  4  7  1  0  0  0  0
  7  8  1  0  0  0  0
  7  9  1  0  0  0  0
  7 10  1  0  0  0  0
 10 11  1  0  0  0  0
 10 12  1  0  0  0  0
 10 13  1  0  0  0  0
 13 14  1  0  0  0  0
 13 15  1  0  0  0  0
 13 16  1  0  0  0  0
 16 17  1  0  0  0  0
 16 18  1  0  0  0  0
 16 19  1  0  0  0  0
 19 20  1  0  0  0  0
 19 21  1  0  0  0  0
 19 22  1  0  0  0  0
 22 23  1  0  0  0  0
 22 24  1  0  0  0  0
 22 25  1  0  0  0  0
M  END
> <VM2 Rank>
142

> <Conf_Id>
231

> <Probability>
0.00

> <Sum Probability>
99.99

> <Delta G>
5.890

> <G>
-2.072

> <E>
-27.514

> <-TS>
25.442

> <U+W>
-48.082

> <U>
11.683

> <W>
-59.764

> <W(PB)>
-62.140

> <W(SA)>
2.375

> <Valence>
11.569

> <Coulomb>
-0.570

> <VdW>
0.684

> <VdW6>
-11.332

> <VdW12>
12.017

> <Bond>
0.291

> <Angle>
3.994

> <Pdih>
7.283

> <Idih>
0.001

> <Tether>
0.000

$$$$
VeraChem MOL file


 25 24  0  0  0  0  0  0  0  0999 V2000     
   20.5389   19.3089   26.9854 C   0  0  0  0  0  0  0  0  0  0  0  0
   21.6944   19.6828   26.9438 O   0  5  0  0  0  0  0  0  0  0  0  0
   20.0719   18.6675   27.9060 O   0  0  0  0  0  0  0  0  0  0  0  0
   19.6294   19.6465   25.8095 C   0  0  0  0  0  0  0  0  0  0  0  0
   19.9549   20.6104   25.4022 H   0  0  0  0  0  0  0  0  0  0  0  0
   18.6113   19.7813   26.1937 H   0  0  0  0  0  0  0  0  0  0  0  0
   19.6459   18.5569   24.7066 C   0  0  0  0  0  0  0  0  0  0  0  0
   20.6643   18.4563   24.3097 H   0  0  0  0  0  0  0  0  0  0  0  0
   19.4002   17.5884   25.1632 H   0  0  0  0  0  0  0  0  0  0  0  0
   18.6450   18.8279   23.5547 C   0  0  0  0  0  0  0  0  0  0  0  0
   17.6283   18.8447   23.9701 H   0  0  0  0  0  0  0  0  0  0  0  0
   18.6600   17.9850   22.8529 H   0  0  0  0  0  0  0  0  0  0  0  0
   18.8785   20.1472   22.7755 C   0  0  0  0  0  0  0  0  0  0  0  0
   18.1081   20.2354   21.9977 H   0  0  0  0  0  0  0  0  0  0  0  0
   18.7074   20.9947   23.4518 H   0  0  0  0  0  0  0  0  0  0  0  0
   20.2736   20.3143   22.1168 C   0  0  0  0  0  0  0  0  0  0  0  0
   21.0693   20.2689   22.8719 H   0  0  0  0  0  0  0  0  0  0  0  0
   20.3168   21.3336   21.7098 H   0  0  0  0  0  0  0  0  0  0  0  0
   20.5690   19.3330   20.9540 C   0  0  0  0  0  0  0  0  0  0  0  0
   19.6399   19.0759   20.4273 H   0  0  0  0  0  0  0  0  0  0  0  0
   21.2029   19.8487   20.2195 H   0  0  0  0  0  0  0  0  0  0  0  0
   21.3064   18.0489   21.3936 C   0  0  0  0  0  0  0  0  0  0  0  0
   21.5545   17.4324   20.5202 H   0  0  0  0  0  0  0  0  0  0  0  0
   22.2439   18.2927   21.9099 H   0  0  0  0  0  0  0  0  0  0  0  0
   20.6959   17.4375   22.0666 H   0  0  0  0  0  0  0  0  0  0  0  0
  1  2  1  0  0  0  0
  1  3  2  0  0  0  0
  1  4  1  0  0  0  0
  4  5  1  0  0  0  0
  4  6  1  0  0  0  0
  4  7  1  0  0  0  0
  7  8  1  0  0  0  0
  7  9  1  0  0  0  0
  7 10  1  0  0  0  0
 10 11  1  0  0  0  0
 10 12  1  0  0  0  0
 10 13  1  0  0  0  0
 13 14  1  0  0  0  0
 13 15  1  0  0  0  0
 13 16  1  0  0  0  0
 16 17  1  0  0  0  0
 16 18  1  0  0  0  0
 16 19  1  0  0  0  0
 19 20  1  0  0  0  0
 19 21  1  0  0  0  0
 19 22  1  0  0  0  0
 22 23  1  0  0  0  0
 22 24  1  0  0  0  0
 22 25  1  0  0  0  0
M  END
> <VM2 Rank>
143

> <Conf_Id>
243

> <Probability>
0.00

> <Sum Probability>
99.99

> <Delta G>
5.971

> <G>
-1.991

> <E>
-27.417

> <-TS>
25.426

> <U+W>
-47.984

> <U>
12.079

> <W>
-60.063

> <W(PB)>
-62.445

> <W(SA)>
2.381

> <Valence>
11.557

> <Coulomb>
-0.144

> <VdW>
0.667

> <VdW6>
-11.344

> <VdW12>
12.010

> <Bond>
0.285

> <Angle>
4.008

> <Pdih>
7.263

> <Idih>
0.000

> <Tether>
0.000

$$$$
VeraChem MOL file


 25 24  0  0  0  0  0  0  0  0999 V2000     
   20.7606   19.4888   26.4282 C   0  0  0  0  0  0  0  0  0  0  0  0
   21.8099   19.6333   25.8329 O   0  5  0  0  0  0  0  0  0  0  0  0
   20.6606   18.8673   27.4683 O   0  0  0  0  0  0  0  0  0  0  0  0
   19.5107   20.1664   25.8702 C   0  0  0  0  0  0  0  0  0  0  0  0
   19.7843   20.7560   24.9885 H   0  0  0  0  0  0  0  0  0  0  0  0
   19.1721   20.8832   26.6271 H   0  0  0  0  0  0  0  0  0  0  0  0
   18.3491   19.1920   25.5367 C   0  0  0  0  0  0  0  0  0  0  0  0
   18.0744   18.6518   26.4533 H   0  0  0  0  0  0  0  0  0  0  0  0
   17.4624   19.7738   25.2512 H   0  0  0  0  0  0  0  0  0  0  0  0
   18.6574   18.1559   24.4257 C   0  0  0  0  0  0  0  0  0  0  0  0
   17.8127   17.4545   24.3885 H   0  0  0  0  0  0  0  0  0  0  0  0
   19.5330   17.5509   24.6986 H   0  0  0  0  0  0  0  0  0  0  0  0
   18.8343   18.7630   23.0104 C   0  0  0  0  0  0  0  0  0  0  0  0
   18.3724   18.0830   22.2816 H   0  0  0  0  0  0  0  0  0  0  0  0
   18.2851   19.7112   22.9334 H   0  0  0  0  0  0  0  0  0  0  0  0
   20.3132   18.9658   22.6067 C   0  0  0  0  0  0  0  0  0  0  0  0
   20.8399   18.0029   22.6531 H   0  0  0  0  0  0  0  0  0  0  0  0
   20.8152   19.6312   23.3188 H   0  0  0  0  0  0  0  0  0  0  0  0
   20.4409   19.5528   21.1851 C   0  0  0  0  0  0  0  0  0  0  0  0
   19.9503   18.8858   20.4627 H   0  0  0  0  0  0  0  0  0  0  0  0
   19.9179   20.5179   21.1354 H   0  0  0  0  0  0  0  0  0  0  0  0
   21.9163   19.7486   20.7818 C   0  0  0  0  0  0  0  0  0  0  0  0
   22.4560   18.7927   20.7913 H   0  0  0  0  0  0  0  0  0  0  0  0
   21.9888   20.1692   19.7704 H   0  0  0  0  0  0  0  0  0  0  0  0
   22.4237   20.4352   21.4722 H   0  0  0  0  0  0  0  0  0  0  0  0
  1  2  1  0  0  0  0
  1  3  2  0  0  0  0
  1  4  1  0  0  0  0
  4  5  1  0  0  0  0
  4  6  1  0  0  0  0
  4  7  1  0  0  0  0
  7  8  1  0  0  0  0
  7  9  1  0  0  0  0
  7 10  1  0  0  0  0
 10 11  1  0  0  0  0
 10 12  1  0  0  0  0
 10 13  1  0  0  0  0
 13 14  1  0  0  0  0
 13 15  1  0  0  0  0
 13 16  1  0  0  0  0
 16 17  1  0  0  0  0
 16 18  1  0  0  0  0
 16 19  1  0  0  0  0
 19 20  1  0  0  0  0
 19 21  1  0  0  0  0
 19 22  1  0  0  0  0
 22 23  1  0  0  0  0
 22 24  1  0  0  0  0
 22 25  1  0  0  0  0
M  END
> <VM2 Rank>
144

> <Conf_Id>
214

> <Probability>
0.00

> <Sum Probability>
99.99

> <Delta G>
5.972

> <G>
-1.990

> <E>
-27.117

> <-TS>
25.127

> <U+W>
-47.685

> <U>
13.358

> <W>
-61.043

> <W(PB)>
-63.441

> <W(SA)>
2.397

> <Valence>
11.157

> <Coulomb>
1.807

> <VdW>
0.394

> <VdW6>
-10.846

> <VdW12>
11.240

> <Bond>
0.228

> <Angle>
3.384

> <Pdih>
7.541

> <Idih>
0.004

> <Tether>
0.000

$$$$
VeraChem MOL file


 25 24  0  0  0  0  0  0  0  0999 V2000     
   19.9920   19.9587   26.1668 C   0  0  0  0  0  0  0  0  0  0  0  0
   20.9479   20.7095   26.1821 O   0  5  0  0  0  0  0  0  0  0  0  0
   18.8498   20.3295   25.9781 O   0  0  0  0  0  0  0  0  0  0  0  0
   20.2243   18.4896   26.5149 C   0  0  0  0  0  0  0  0  0  0  0  0
   19.6375   18.2916   27.4193 H   0  0  0  0  0  0  0  0  0  0  0  0
   21.2772   18.3492   26.7875 H   0  0  0  0  0  0  0  0  0  0  0  0
   19.8108   17.4742   25.4127 C   0  0  0  0  0  0  0  0  0  0  0  0
   19.6392   16.5036   25.8973 H   0  0  0  0  0  0  0  0  0  0  0  0
   18.8441   17.7619   24.9786 H   0  0  0  0  0  0  0  0  0  0  0  0
   20.8698   17.2577   24.3002 C   0  0  0  0  0  0  0  0  0  0  0  0
   20.5345   16.4345   23.6546 H   0  0  0  0  0  0  0  0  0  0  0  0
   21.8052   16.9144   24.7625 H   0  0  0  0  0  0  0  0  0  0  0  0
   21.1772   18.4867   23.4100 C   0  0  0  0  0  0  0  0  0  0  0  0
   21.5989   19.2968   24.0181 H   0  0  0  0  0  0  0  0  0  0  0  0
   21.9628   18.2058   22.6956 H   0  0  0  0  0  0  0  0  0  0  0  0
   19.9498   19.0026   22.6238 C   0  0  0  0  0  0  0  0  0  0  0  0
   19.1797   19.3547   23.3227 H   0  0  0  0  0  0  0  0  0  0  0  0
   19.5089   18.1781   22.0473 H   0  0  0  0  0  0  0  0  0  0  0  0
   20.3278   20.1559   21.6708 C   0  0  0  0  0  0  0  0  0  0  0  0
   20.7643   20.9823   22.2490 H   0  0  0  0  0  0  0  0  0  0  0  0
   21.0984   19.8171   20.9646 H   0  0  0  0  0  0  0  0  0  0  0  0
   19.1036   20.6695   20.8864 C   0  0  0  0  0  0  0  0  0  0  0  0
   18.3299   21.0442   21.5695 H   0  0  0  0  0  0  0  0  0  0  0  0
   19.3900   21.4899   20.2157 H   0  0  0  0  0  0  0  0  0  0  0  0
   18.6643   19.8697   20.2762 H   0  0  0  0  0  0  0  0  0  0  0  0
  1  2  1  0  0  0  0
  1  3  2  0  0  0  0
  1  4  1  0  0  0  0
  4  5  1  0  0  0  0
  4  6  1  0  0  0  0
  4  7  1  0  0  0  0
  7  8  1  0  0  0  0
  7  9  1  0  0  0  0
  7 10  1  0  0  0  0
 10 11  1  0  0  0  0
 10 12  1  0  0  0  0
 10 13  1  0  0  0  0
 13 14  1  0  0  0  0
 13 15  1  0  0  0  0
 13 16  1  0  0  0  0
 16 17  1  0  0  0  0
 16 18  1  0  0  0  0
 16 19  1  0  0  0  0
 19 20  1  0  0  0  0
 19 21  1  0  0  0  0
 19 22  1  0  0  0  0
 22 23  1  0  0  0  0
 22 24  1  0  0  0  0
 22 25  1  0  0  0  0
M  END
> <VM2 Rank>
145

> <Conf_Id>
1082

> <Probability>
0.00

> <Sum Probability>
99.99

> <Delta G>
5.999

> <G>
-1.963

> <E>
-27.680

> <-TS>
25.717

> <U+W>
-48.248

> <U>
13.046

> <W>
-61.294

> <W(PB)>
-63.665

> <W(SA)>
2.371

> <Valence>
10.098

> <Coulomb>
2.795

> <VdW>
0.153

> <VdW6>
-11.572

> <VdW12>
11.725

> <Bond>
0.240

> <Angle>
3.695

> <Pdih>
6.146

> <Idih>
0.017

> <Tether>
0.000

$$$$
VeraChem MOL file


 25 24  0  0  0  0  0  0  0  0999 V2000     
   20.7799   18.9308   26.1624 C   0  0  0  0  0  0  0  0  0  0  0  0
   21.7533   19.6588   26.1774 O   0  5  0  0  0  0  0  0  0  0  0  0
   20.8404   17.7326   25.9663 O   0  0  0  0  0  0  0  0  0  0  0  0
   19.4231   19.5347   26.5198 C   0  0  0  0  0  0  0  0  0  0  0  0
   19.5622   20.5864   26.7979 H   0  0  0  0  0  0  0  0  0  0  0  0
   19.0833   19.0142   27.4226 H   0  0  0  0  0  0  0  0  0  0  0  0
   18.3304   19.4056   25.4215 C   0  0  0  0  0  0  0  0  0  0  0  0
   18.3551   18.3999   24.9814 H   0  0  0  0  0  0  0  0  0  0  0  0
   17.3506   19.4893   25.9108 H   0  0  0  0  0  0  0  0  0  0  0  0
   18.3916   20.4909   24.3150 C   0  0  0  0  0  0  0  0  0  0  0  0
   18.3052   21.4807   24.7834 H   0  0  0  0  0  0  0  0  0  0  0  0
   17.5068   20.3848   23.6726 H   0  0  0  0  0  0  0  0  0  0  0  0
   19.6544   20.4735   23.4190 C   0  0  0  0  0  0  0  0  0  0  0  0
   19.5841   21.3093   22.7098 H   0  0  0  0  0  0  0  0  0  0  0  0
   20.5489   20.6667   24.0244 H   0  0  0  0  0  0  0  0  0  0  0  0
   19.8301   19.1588   22.6245 C   0  0  0  0  0  0  0  0  0  0  0  0
   18.9168   18.9505   22.0509 H   0  0  0  0  0  0  0  0  0  0  0  0
   19.9731   18.3196   23.3180 H   0  0  0  0  0  0  0  0  0  0  0  0
   21.0377   19.2297   21.6665 C   0  0  0  0  0  0  0  0  0  0  0  0
   20.9077   20.0659   20.9657 H   0  0  0  0  0  0  0  0  0  0  0  0
   21.9518   19.4331   22.2418 H   0  0  0  0  0  0  0  0  0  0  0  0
   21.2121   17.9186   20.8738 C   0  0  0  0  0  0  0  0  0  0  0  0
   20.3229   17.7057   20.2662 H   0  0  0  0  0  0  0  0  0  0  0  0
   22.0758   17.9859   20.1995 H   0  0  0  0  0  0  0  0  0  0  0  0
   21.3759   17.0702   21.5512 H   0  0  0  0  0  0  0  0  0  0  0  0
  1  2  1  0  0  0  0
  1  3  2  0  0  0  0
  1  4  1  0  0  0  0
  4  5  1  0  0  0  0
  4  6  1  0  0  0  0
  4  7  1  0  0  0  0
  7  8  1  0  0  0  0
  7  9  1  0  0  0  0
  7 10  1  0  0  0  0
 10 11  1  0  0  0  0
 10 12  1  0  0  0  0
 10 13  1  0  0  0  0
 13 14  1  0  0  0  0
 13 15  1  0  0  0  0
 13 16  1  0  0  0  0
 16 17  1  0  0  0  0
 16 18  1  0  0  0  0
 16 19  1  0  0  0  0
 19 20  1  0  0  0  0
 19 21  1  0  0  0  0
 19 22  1  0  0  0  0
 22 23  1  0  0  0  0
 22 24  1  0  0  0  0
 22 25  1  0  0  0  0
M  END
> <VM2 Rank>
146

> <Conf_Id>
238

> <Probability>
0.00

> <Sum Probability>
99.99

> <Delta G>
6.028

> <G>
-1.935

> <E>
-27.651

> <-TS>
25.716

> <U+W>
-48.219

> <U>
13.047

> <W>
-61.265

> <W(PB)>
-63.654

> <W(SA)>
2.389

> <Valence>
10.098

> <Coulomb>
2.796

> <VdW>
0.153

> <VdW6>
-11.572

> <VdW12>
11.725

> <Bond>
0.240

> <Angle>
3.695

> <Pdih>
6.145

> <Idih>
0.018

> <Tether>
0.000

$$$$
VeraChem MOL file


 25 24  0  0  0  0  0  0  0  0999 V2000     
   19.5291   19.4313   26.6732 C   0  0  0  0  0  0  0  0  0  0  0  0
   19.9348   19.2341   27.8018 O   0  5  0  0  0  0  0  0  0  0  0  0
   18.6411   20.2160   26.4046 O   0  0  0  0  0  0  0  0  0  0  0  0
   20.1866   18.6680   25.5294 C   0  0  0  0  0  0  0  0  0  0  0  0
   19.4158   18.4661   24.7778 H   0  0  0  0  0  0  0  0  0  0  0  0
   20.5243   17.6987   25.9147 H   0  0  0  0  0  0  0  0  0  0  0  0
   21.3783   19.4378   24.9025 C   0  0  0  0  0  0  0  0  0  0  0  0
   21.0407   20.4111   24.5246 H   0  0  0  0  0  0  0  0  0  0  0  0
   22.1060   19.6599   25.6951 H   0  0  0  0  0  0  0  0  0  0  0  0
   22.0979   18.6517   23.7803 C   0  0  0  0  0  0  0  0  0  0  0  0
   22.4963   17.7203   24.2051 H   0  0  0  0  0  0  0  0  0  0  0  0
   22.9728   19.2288   23.4515 H   0  0  0  0  0  0  0  0  0  0  0  0
   21.2363   18.2993   22.5389 C   0  0  0  0  0  0  0  0  0  0  0  0
   21.8652   17.6939   21.8723 H   0  0  0  0  0  0  0  0  0  0  0  0
   20.4048   17.6440   22.8219 H   0  0  0  0  0  0  0  0  0  0  0  0
   20.7354   19.5243   21.7266 C   0  0  0  0  0  0  0  0  0  0  0  0
   20.7387   19.2623   20.6598 H   0  0  0  0  0  0  0  0  0  0  0  0
   21.4543   20.3483   21.8301 H   0  0  0  0  0  0  0  0  0  0  0  0
   19.3167   20.0302   22.0906 C   0  0  0  0  0  0  0  0  0  0  0  0
   19.2465   20.2594   23.1604 H   0  0  0  0  0  0  0  0  0  0  0  0
   19.1414   20.9789   21.5652 H   0  0  0  0  0  0  0  0  0  0  0  0
   18.1969   19.0412   21.6981 C   0  0  0  0  0  0  0  0  0  0  0  0
   18.2624   18.1085   22.2711 H   0  0  0  0  0  0  0  0  0  0  0  0
   17.2112   19.4820   21.8953 H   0  0  0  0  0  0  0  0  0  0  0  0
   18.2479   18.7931   20.6301 H   0  0  0  0  0  0  0  0  0  0  0  0
  1  2  1  0  0  0  0
  1  3  2  0  0  0  0
  1  4  1  0  0  0  0
  4  5  1  0  0  0  0
  4  6  1  0  0  0  0
  4  7  1  0  0  0  0
  7  8  1  0  0  0  0
  7  9  1  0  0  0  0
  7 10  1  0  0  0  0
 10 11  1  0  0  0  0
 10 12  1  0  0  0  0
 10 13  1  0  0  0  0
 13 14  1  0  0  0  0
 13 15  1  0  0  0  0
 13 16  1  0  0  0  0
 16 17  1  0  0  0  0
 16 18  1  0  0  0  0
 16 19  1  0  0  0  0
 19 20  1  0  0  0  0
 19 21  1  0  0  0  0
 19 22  1  0  0  0  0
 22 23  1  0  0  0  0
 22 24  1  0  0  0  0
 22 25  1  0  0  0  0
M  END
> <VM2 Rank>
147

> <Conf_Id>
1049

> <Probability>
0.00

> <Sum Probability>
99.99

> <Delta G>
6.256

> <G>
-1.706

> <E>
-27.165

> <-TS>
25.459

> <U+W>
-47.733

> <U>
12.724

> <W>
-60.457

> <W(PB)>
-62.797

> <W(SA)>
2.340

> <Valence>
11.802

> <Coulomb>
0.382

> <VdW>
0.540

> <VdW6>
-11.531

> <VdW12>
12.071

> <Bond>
0.296

> <Angle>
3.954

> <Pdih>
7.551

> <Idih>
0.001

> <Tether>
0.000

$$$$
VeraChem MOL file


 25 24  0  0  0  0  0  0  0  0999 V2000     
   19.7391   19.6557   26.8711 C   0  0  0  0  0  0  0  0  0  0  0  0
   19.9696   19.0412   27.8939 O   0  5  0  0  0  0  0  0  0  0  0  0
   18.7439   20.3321   26.7020 O   0  0  0  0  0  0  0  0  0  0  0  0
   20.7462   19.5580   25.7308 C   0  0  0  0  0  0  0  0  0  0  0  0
   21.7472   19.4683   26.1691 H   0  0  0  0  0  0  0  0  0  0  0  0
   20.7170   20.5043   25.1803 H   0  0  0  0  0  0  0  0  0  0  0  0
   20.4661   18.3599   24.7860 C   0  0  0  0  0  0  0  0  0  0  0  0
   20.4390   17.4422   25.3895 H   0  0  0  0  0  0  0  0  0  0  0  0
   19.4661   18.4657   24.3504 H   0  0  0  0  0  0  0  0  0  0  0  0
   21.5340   18.1851   23.6761 C   0  0  0  0  0  0  0  0  0  0  0  0
   21.3958   17.2112   23.1874 H   0  0  0  0  0  0  0  0  0  0  0  0
   22.5201   18.1364   24.1577 H   0  0  0  0  0  0  0  0  0  0  0  0
   21.5635   19.3016   22.5973 C   0  0  0  0  0  0  0  0  0  0  0  0
   21.2772   20.2717   23.0192 H   0  0  0  0  0  0  0  0  0  0  0  0
   22.6068   19.4242   22.2761 H   0  0  0  0  0  0  0  0  0  0  0  0
   20.7297   18.9984   21.3243 C   0  0  0  0  0  0  0  0  0  0  0  0
   21.0906   18.0615   20.8787 H   0  0  0  0  0  0  0  0  0  0  0  0
   20.9330   19.7808   20.5805 H   0  0  0  0  0  0  0  0  0  0  0  0
   19.1988   18.8968   21.5231 C   0  0  0  0  0  0  0  0  0  0  0  0
   18.7390   18.6422   20.5584 H   0  0  0  0  0  0  0  0  0  0  0  0
   18.9596   18.0651   22.1974 H   0  0  0  0  0  0  0  0  0  0  0  0
   18.5621   20.2052   22.0412 C   0  0  0  0  0  0  0  0  0  0  0  0
   18.7913   21.0445   21.3721 H   0  0  0  0  0  0  0  0  0  0  0  0
   17.4706   20.1052   22.0974 H   0  0  0  0  0  0  0  0  0  0  0  0
   18.9246   20.4586   23.0453 H   0  0  0  0  0  0  0  0  0  0  0  0
  1  2  1  0  0  0  0
  1  3  2  0  0  0  0
  1  4  1  0  0  0  0
  4  5  1  0  0  0  0
  4  6  1  0  0  0  0
  4  7  1  0  0  0  0
  7  8  1  0  0  0  0
  7  9  1  0  0  0  0
  7 10  1  0  0  0  0
 10 11  1  0  0  0  0
 10 12  1  0  0  0  0
 10 13  1  0  0  0  0
 13 14  1  0  0  0  0
 13 15  1  0  0  0  0
 13 16  1  0  0  0  0
 16 17  1  0  0  0  0
 16 18  1  0  0  0  0
 16 19  1  0  0  0  0
 19 20  1  0  0  0  0
 19 21  1  0  0  0  0
 19 22  1  0  0  0  0
 22 23  1  0  0  0  0
 22 24  1  0  0  0  0
 22 25  1  0  0  0  0
M  END
> <VM2 Rank>
148

> <Conf_Id>
701

> <Probability>
0.00

> <Sum Probability>
99.99

> <Delta G>
6.278

> <G>
-1.684

> <E>
-27.070

> <-TS>
25.386

> <U+W>
-47.637

> <U>
12.577

> <W>
-60.214

> <W(PB)>
-62.544

> <W(SA)>
2.329

> <Valence>
11.827

> <Coulomb>
0.089

> <VdW>
0.661

> <VdW6>
-11.301

> <VdW12>
11.962

> <Bond>
0.300

> <Angle>
3.988

> <Pdih>
7.539

> <Idih>
0.000

> <Tether>
0.000

$$$$
VeraChem MOL file


 25 24  0  0  0  0  0  0  0  0999 V2000     
   20.3746   19.4409   27.0510 C   0  0  0  0  0  0  0  0  0  0  0  0
   21.3013   20.2222   27.1401 O   0  5  0  0  0  0  0  0  0  0  0  0
   19.3196   19.5789   27.6384 O   0  0  0  0  0  0  0  0  0  0  0  0
   20.5559   18.2083   26.1697 C   0  0  0  0  0  0  0  0  0  0  0  0
   19.8205   17.4521   26.4700 H   0  0  0  0  0  0  0  0  0  0  0  0
   21.5463   17.7916   26.3873 H   0  0  0  0  0  0  0  0  0  0  0  0
   20.4381   18.4981   24.6509 C   0  0  0  0  0  0  0  0  0  0  0  0
   21.1688   19.2717   24.3803 H   0  0  0  0  0  0  0  0  0  0  0  0
   20.7061   17.5917   24.0916 H   0  0  0  0  0  0  0  0  0  0  0  0
   19.0171   18.9500   24.2421 C   0  0  0  0  0  0  0  0  0  0  0  0
   18.7835   19.9102   24.7225 H   0  0  0  0  0  0  0  0  0  0  0  0
   18.2872   18.2272   24.6315 H   0  0  0  0  0  0  0  0  0  0  0  0
   18.8085   19.0775   22.7122 C   0  0  0  0  0  0  0  0  0  0  0  0
   18.9474   18.0992   22.2358 H   0  0  0  0  0  0  0  0  0  0  0  0
   17.7559   19.3426   22.5437 H   0  0  0  0  0  0  0  0  0  0  0  0
   19.6911   20.1564   22.0297 C   0  0  0  0  0  0  0  0  0  0  0  0
   19.9343   20.9425   22.7576 H   0  0  0  0  0  0  0  0  0  0  0  0
   19.1034   20.6517   21.2448 H   0  0  0  0  0  0  0  0  0  0  0  0
   20.9972   19.6198   21.3928 C   0  0  0  0  0  0  0  0  0  0  0  0
   21.6349   20.4746   21.1290 H   0  0  0  0  0  0  0  0  0  0  0  0
   21.5654   19.0251   22.1183 H   0  0  0  0  0  0  0  0  0  0  0  0
   20.7496   18.7818   20.1190 C   0  0  0  0  0  0  0  0  0  0  0  0
   20.1899   19.3592   19.3718 H   0  0  0  0  0  0  0  0  0  0  0  0
   21.7034   18.4811   19.6667 H   0  0  0  0  0  0  0  0  0  0  0  0
   20.1841   17.8684   20.3398 H   0  0  0  0  0  0  0  0  0  0  0  0
  1  2  1  0  0  0  0
  1  3  2  0  0  0  0
  1  4  1  0  0  0  0
  4  5  1  0  0  0  0
  4  6  1  0  0  0  0
  4  7  1  0  0  0  0
  7  8  1  0  0  0  0
  7  9  1  0  0  0  0
  7 10  1  0  0  0  0
 10 11  1  0  0  0  0
 10 12  1  0  0  0  0
 10 13  1  0  0  0  0
 13 14  1  0  0  0  0
 13 15  1  0  0  0  0
 13 16  1  0  0  0  0
 16 17  1  0  0  0  0
 16 18  1  0  0  0  0
 16 19  1  0  0  0  0
 19 20  1  0  0  0  0
 19 21  1  0  0  0  0
 19 22  1  0  0  0  0
 22 23  1  0  0  0  0
 22 24  1  0  0  0  0
 22 25  1  0  0  0  0
M  END
> <VM2 Rank>
149

> <Conf_Id>
707

> <Probability>
0.00

> <Sum Probability>
99.99

> <Delta G>
6.290

> <G>
-1.672

> <E>
-26.816

> <-TS>
25.143

> <U+W>
-47.384

> <U>
12.751

> <W>
-60.134

> <W(PB)>
-62.535

> <W(SA)>
2.401

> <Valence>
11.503

> <Coulomb>
0.344

> <VdW>
0.904

> <VdW6>
-10.720

> <VdW12>
11.623

> <Bond>
0.257

> <Angle>
3.380

> <Pdih>
7.866

> <Idih>
0.001

> <Tether>
0.000

$$$$
VeraChem MOL file


 25 24  0  0  0  0  0  0  0  0999 V2000     
   20.3885   19.4125   27.0515 C   0  0  0  0  0  0  0  0  0  0  0  0
   21.5746   19.6584   27.1500 O   0  5  0  0  0  0  0  0  0  0  0  0
   19.8348   18.5159   27.6572 O   0  0  0  0  0  0  0  0  0  0  0  0
   19.5458   20.2923   26.1325 C   0  0  0  0  0  0  0  0  0  0  0  0
   19.8295   21.3339   26.3239 H   0  0  0  0  0  0  0  0  0  0  0  0
   18.4925   20.1921   26.4211 H   0  0  0  0  0  0  0  0  0  0  0  0
   19.7216   19.9765   24.6244 C   0  0  0  0  0  0  0  0  0  0  0  0
   19.1842   20.7318   24.0355 H   0  0  0  0  0  0  0  0  0  0  0  0
   20.7852   20.0630   24.3662 H   0  0  0  0  0  0  0  0  0  0  0  0
   19.2012   18.5697   24.2490 C   0  0  0  0  0  0  0  0  0  0  0  0
   18.1761   18.4559   24.6273 H   0  0  0  0  0  0  0  0  0  0  0  0
   19.8030   17.8058   24.7604 H   0  0  0  0  0  0  0  0  0  0  0  0
   19.1937   18.2827   22.7265 C   0  0  0  0  0  0  0  0  0  0  0  0
   18.7517   17.2877   22.5806 H   0  0  0  0  0  0  0  0  0  0  0  0
   18.5189   18.9837   22.2199 H   0  0  0  0  0  0  0  0  0  0  0  0
   20.5970   18.2872   22.0636 C   0  0  0  0  0  0  0  0  0  0  0  0
   20.6327   17.4964   21.3019 H   0  0  0  0  0  0  0  0  0  0  0  0
   21.3542   18.0127   22.8106 H   0  0  0  0  0  0  0  0  0  0  0  0
   20.9943   19.6259   21.3928 C   0  0  0  0  0  0  0  0  0  0  0  0
   20.8693   20.4611   22.0924 H   0  0  0  0  0  0  0  0  0  0  0  0
   22.0641   19.5893   21.1452 H   0  0  0  0  0  0  0  0  0  0  0  0
   20.2015   19.9129   20.0985 C   0  0  0  0  0  0  0  0  0  0  0  0
   20.5629   20.8345   19.6241 H   0  0  0  0  0  0  0  0  0  0  0  0
   20.3187   19.0944   19.3765 H   0  0  0  0  0  0  0  0  0  0  0  0
   19.1311   20.0409   20.3002 H   0  0  0  0  0  0  0  0  0  0  0  0
  1  2  1  0  0  0  0
  1  3  2  0  0  0  0
  1  4  1  0  0  0  0
  4  5  1  0  0  0  0
  4  6  1  0  0  0  0
  4  7  1  0  0  0  0
  7  8  1  0  0  0  0
  7  9  1  0  0  0  0
  7 10  1  0  0  0  0
 10 11  1  0  0  0  0
 10 12  1  0  0  0  0
 10 13  1  0  0  0  0
 13 14  1  0  0  0  0
 13 15  1  0  0  0  0
 13 16  1  0  0  0  0
 16 17  1  0  0  0  0
 16 18  1  0  0  0  0
 16 19  1  0  0  0  0
 19 20  1  0  0  0  0
 19 21  1  0  0  0  0
 19 22  1  0  0  0  0
 22 23  1  0  0  0  0
 22 24  1  0  0  0  0
 22 25  1  0  0  0  0
M  END
> <VM2 Rank>
150

> <Conf_Id>
109

> <Probability>
0.00

> <Sum Probability>
99.99

> <Delta G>
6.291

> <G>
-1.671

> <E>
-26.815

> <-TS>
25.144

> <U+W>
-47.383

> <U>
12.751

> <W>
-60.134

> <W(PB)>
-62.544

> <W(SA)>
2.410

> <Valence>
11.503

> <Coulomb>
0.345

> <VdW>
0.904

> <VdW6>
-10.720

> <VdW12>
11.624

> <Bond>
0.257

> <Angle>
3.379

> <Pdih>
7.867

> <Idih>
0.001

> <Tether>
0.000

$$$$
VeraChem MOL file


 25 24  0  0  0  0  0  0  0  0999 V2000     
   20.5155   19.7056   26.8623 C   0  0  0  0  0  0  0  0  0  0  0  0
   21.4122   20.5032   26.6713 O   0  5  0  0  0  0  0  0  0  0  0  0
   20.3888   19.0685   27.8894 O   0  0  0  0  0  0  0  0  0  0  0  0
   19.5034   19.4782   25.7452 C   0  0  0  0  0  0  0  0  0  0  0  0
   19.3986   20.4197   25.1956 H   0  0  0  0  0  0  0  0  0  0  0  0
   18.5324   19.2618   26.2062 H   0  0  0  0  0  0  0  0  0  0  0  0
   19.9128   18.3245   24.7924 C   0  0  0  0  0  0  0  0  0  0  0  0
   20.8807   18.5569   24.3340 H   0  0  0  0  0  0  0  0  0  0  0  0
   20.0712   17.4187   25.3937 H   0  0  0  0  0  0  0  0  0  0  0  0
   18.8508   18.0127   23.7072 C   0  0  0  0  0  0  0  0  0  0  0  0
   17.8904   17.8388   24.2113 H   0  0  0  0  0  0  0  0  0  0  0  0
   19.1013   17.0638   23.2140 H   0  0  0  0  0  0  0  0  0  0  0  0
   18.6536   19.1147   22.6310 C   0  0  0  0  0  0  0  0  0  0  0  0
   17.5961   19.1022   22.3342 H   0  0  0  0  0  0  0  0  0  0  0  0
   18.8231   20.1140   23.0475 H   0  0  0  0  0  0  0  0  0  0  0  0
   19.4897   18.9187   21.3386 C   0  0  0  0  0  0  0  0  0  0  0  0
   19.1709   19.6676   20.6009 H   0  0  0  0  0  0  0  0  0  0  0  0
   19.2414   17.9426   20.9001 H   0  0  0  0  0  0  0  0  0  0  0  0
   21.0252   19.0141   21.5018 C   0  0  0  0  0  0  0  0  0  0  0  0
   21.3844   18.2208   22.1692 H   0  0  0  0  0  0  0  0  0  0  0  0
   21.4914   18.8189   20.5264 H   0  0  0  0  0  0  0  0  0  0  0  0
   21.5011   20.3939   22.0069 C   0  0  0  0  0  0  0  0  0  0  0  0
   21.1324   20.6006   23.0194 H   0  0  0  0  0  0  0  0  0  0  0  0
   22.5974   20.4345   22.0377 H   0  0  0  0  0  0  0  0  0  0  0  0
   21.1510   21.1960   21.3444 H   0  0  0  0  0  0  0  0  0  0  0  0
  1  2  1  0  0  0  0
  1  3  2  0  0  0  0
  1  4  1  0  0  0  0
  4  5  1  0  0  0  0
  4  6  1  0  0  0  0
  4  7  1  0  0  0  0
  7  8  1  0  0  0  0
  7  9  1  0  0  0  0
  7 10  1  0  0  0  0
 10 11  1  0  0  0  0
 10 12  1  0  0  0  0
 10 13  1  0  0  0  0
 13 14  1  0  0  0  0
 13 15  1  0  0  0  0
 13 16  1  0  0  0  0
 16 17  1  0  0  0  0
 16 18  1  0  0  0  0
 16 19  1  0  0  0  0
 19 20  1  0  0  0  0
 19 21  1  0  0  0  0
 19 22  1  0  0  0  0
 22 23  1  0  0  0  0
 22 24  1  0  0  0  0
 22 25  1  0  0  0  0
M  END
> <VM2 Rank>
151

> <Conf_Id>
704

> <Probability>
0.00

> <Sum Probability>
99.99

> <Delta G>
6.324

> <G>
-1.638

> <E>
-27.023

> <-TS>
25.385

> <U+W>
-47.591

> <U>
12.576

> <W>
-60.167

> <W(PB)>
-62.530

> <W(SA)>
2.363

> <Valence>
11.827

> <Coulomb>
0.088

> <VdW>
0.661

> <VdW6>
-11.300

> <VdW12>
11.961

> <Bond>
0.300

> <Angle>
3.988

> <Pdih>
7.540

> <Idih>
0.000

> <Tether>
0.000

$$$$
VeraChem MOL file


 25 24  0  0  0  0  0  0  0  0999 V2000     
   20.7481   19.5095   26.6592 C   0  0  0  0  0  0  0  0  0  0  0  0
   21.5224   20.4006   26.3712 O   0  5  0  0  0  0  0  0  0  0  0  0
   20.3967   19.2641   27.7965 O   0  0  0  0  0  0  0  0  0  0  0  0
   20.1672   18.6667   25.5298 C   0  0  0  0  0  0  0  0  0  0  0  0
   19.9649   17.6628   25.9215 H   0  0  0  0  0  0  0  0  0  0  0  0
   20.9400   18.5635   24.7603 H   0  0  0  0  0  0  0  0  0  0  0  0
   18.8729   19.2771   24.9316 C   0  0  0  0  0  0  0  0  0  0  0  0
   18.1412   19.4056   25.7409 H   0  0  0  0  0  0  0  0  0  0  0  0
   19.0747   20.2849   24.5474 H   0  0  0  0  0  0  0  0  0  0  0  0
   18.2340   18.4038   23.8250 C   0  0  0  0  0  0  0  0  0  0  0  0
   17.2851   18.8639   23.5174 H   0  0  0  0  0  0  0  0  0  0  0  0
   17.9678   17.4297   24.2575 H   0  0  0  0  0  0  0  0  0  0  0  0
   19.1047   18.1627   22.5635 C   0  0  0  0  0  0  0  0  0  0  0  0
   20.0194   17.6193   22.8263 H   0  0  0  0  0  0  0  0  0  0  0  0
   18.5431   17.4809   21.9106 H   0  0  0  0  0  0  0  0  0  0  0  0
   19.4261   19.4405   21.7419 C   0  0  0  0  0  0  0  0  0  0  0  0
   18.6106   20.1662   21.8635 H   0  0  0  0  0  0  0  0  0  0  0  0
   19.4315   19.1788   20.6750 H   0  0  0  0  0  0  0  0  0  0  0  0
   20.7767   20.1238   22.0738 C   0  0  0  0  0  0  0  0  0  0  0  0
   20.8173   21.0865   21.5462 H   0  0  0  0  0  0  0  0  0  0  0  0
   20.8421   20.3613   23.1421 H   0  0  0  0  0  0  0  0  0  0  0  0
   22.0042   19.2853   21.6536 C   0  0  0  0  0  0  0  0  0  0  0  0
   21.9604   19.0315   20.5865 H   0  0  0  0  0  0  0  0  0  0  0  0
   22.9299   19.8485   21.8285 H   0  0  0  0  0  0  0  0  0  0  0  0
   22.0717   18.3525   22.2262 H   0  0  0  0  0  0  0  0  0  0  0  0
  1  2  1  0  0  0  0
  1  3  2  0  0  0  0
  1  4  1  0  0  0  0
  4  5  1  0  0  0  0
  4  6  1  0  0  0  0
  4  7  1  0  0  0  0
  7  8  1  0  0  0  0
  7  9  1  0  0  0  0
  7 10  1  0  0  0  0
 10 11  1  0  0  0  0
 10 12  1  0  0  0  0
 10 13  1  0  0  0  0
 13 14  1  0  0  0  0
 13 15  1  0  0  0  0
 13 16  1  0  0  0  0
 16 17  1  0  0  0  0
 16 18  1  0  0  0  0
 16 19  1  0  0  0  0
 19 20  1  0  0  0  0
 19 21  1  0  0  0  0
 19 22  1  0  0  0  0
 22 23  1  0  0  0  0
 22 24  1  0  0  0  0
 22 25  1  0  0  0  0
M  END
> <VM2 Rank>
152

> <Conf_Id>
974

> <Probability>
0.00

> <Sum Probability>
99.99

> <Delta G>
6.329

> <G>
-1.634

> <E>
-27.092

> <-TS>
25.458

> <U+W>
-47.660

> <U>
12.724

> <W>
-60.383

> <W(PB)>
-62.752

> <W(SA)>
2.369

> <Valence>
11.802

> <Coulomb>
0.382

> <VdW>
0.540

> <VdW6>
-11.531

> <VdW12>
12.070

> <Bond>
0.296

> <Angle>
3.953

> <Pdih>
7.553

> <Idih>
0.001

> <Tether>
0.000

$$$$
VeraChem MOL file


 25 24  0  0  0  0  0  0  0  0999 V2000     
   19.8750   19.2343   27.1493 C   0  0  0  0  0  0  0  0  0  0  0  0
   20.7307   19.7224   27.8611 O   0  5  0  0  0  0  0  0  0  0  0  0
   18.6961   19.5209   27.2216 O   0  0  0  0  0  0  0  0  0  0  0  0
   20.3039   18.1899   26.1224 C   0  0  0  0  0  0  0  0  0  0  0  0
   19.4209   17.6155   25.8172 H   0  0  0  0  0  0  0  0  0  0  0  0
   20.9781   17.4899   26.6296 H   0  0  0  0  0  0  0  0  0  0  0  0
   21.0136   18.7821   24.8770 C   0  0  0  0  0  0  0  0  0  0  0  0
   21.8754   19.3816   25.2015 H   0  0  0  0  0  0  0  0  0  0  0  0
   21.4141   17.9552   24.2776 H   0  0  0  0  0  0  0  0  0  0  0  0
   20.0676   19.6502   24.0119 C   0  0  0  0  0  0  0  0  0  0  0  0
   19.6722   20.4679   24.6299 H   0  0  0  0  0  0  0  0  0  0  0  0
   19.2012   19.0542   23.7013 H   0  0  0  0  0  0  0  0  0  0  0  0
   20.7683   20.2700   22.7764 C   0  0  0  0  0  0  0  0  0  0  0  0
   20.1471   21.0812   22.3731 H   0  0  0  0  0  0  0  0  0  0  0  0
   21.6987   20.7487   23.1109 H   0  0  0  0  0  0  0  0  0  0  0  0
   21.0988   19.2635   21.6420 C   0  0  0  0  0  0  0  0  0  0  0  0
   21.2682   18.2580   22.0465 H   0  0  0  0  0  0  0  0  0  0  0  0
   22.0519   19.5651   21.1866 H   0  0  0  0  0  0  0  0  0  0  0  0
   20.0419   19.2003   20.5116 C   0  0  0  0  0  0  0  0  0  0  0  0
   19.9371   20.1912   20.0486 H   0  0  0  0  0  0  0  0  0  0  0  0
   20.4134   18.5307   19.7237 H   0  0  0  0  0  0  0  0  0  0  0  0
   18.6570   18.7005   20.9727 C   0  0  0  0  0  0  0  0  0  0  0  0
   17.9912   18.5643   20.1108 H   0  0  0  0  0  0  0  0  0  0  0  0
   18.7392   17.7375   21.4932 H   0  0  0  0  0  0  0  0  0  0  0  0
   18.1806   19.4220   21.6480 H   0  0  0  0  0  0  0  0  0  0  0  0
  1  2  1  0  0  0  0
  1  3  2  0  0  0  0
  1  4  1  0  0  0  0
  4  5  1  0  0  0  0
  4  6  1  0  0  0  0
  4  7  1  0  0  0  0
  7  8  1  0  0  0  0
  7  9  1  0  0  0  0
  7 10  1  0  0  0  0
 10 11  1  0  0  0  0
 10 12  1  0  0  0  0
 10 13  1  0  0  0  0
 13 14  1  0  0  0  0
 13 15  1  0  0  0  0
 13 16  1  0  0  0  0
 16 17  1  0  0  0  0
 16 18  1  0  0  0  0
 16 19  1  0  0  0  0
 19 20  1  0  0  0  0
 19 21  1  0  0  0  0
 19 22  1  0  0  0  0
 22 23  1  0  0  0  0
 22 24  1  0  0  0  0
 22 25  1  0  0  0  0
M  END
> <VM2 Rank>
153

> <Conf_Id>
385

> <Probability>
0.00

> <Sum Probability>
99.99

> <Delta G>
6.389

> <G>
-1.574

> <E>
-26.710

> <-TS>
25.136

> <U+W>
-47.278

> <U>
12.718

> <W>
-59.995

> <W(PB)>
-62.409

> <W(SA)>
2.414

> <Valence>
11.548

> <Coulomb>
0.194

> <VdW>
0.975

> <VdW6>
-10.624

> <VdW12>
11.599

> <Bond>
0.265

> <Angle>
3.381

> <Pdih>
7.902

> <Idih>
0.000

> <Tether>
0.000

$$$$
VeraChem MOL file


 25 24  0  0  0  0  0  0  0  0999 V2000     
   19.7778   19.5435   26.9264 C   0  0  0  0  0  0  0  0  0  0  0  0
   20.2731   19.1908   27.9788 O   0  5  0  0  0  0  0  0  0  0  0  0
   18.5848   19.5026   26.6982 O   0  0  0  0  0  0  0  0  0  0  0  0
   20.7043   20.0892   25.8430 C   0  0  0  0  0  0  0  0  0  0  0  0
   21.3668   20.8197   26.3217 H   0  0  0  0  0  0  0  0  0  0  0  0
   20.0981   20.6423   25.1185 H   0  0  0  0  0  0  0  0  0  0  0  0
   21.5618   19.0001   25.1403 C   0  0  0  0  0  0  0  0  0  0  0  0
   22.3442   19.4755   24.5337 H   0  0  0  0  0  0  0  0  0  0  0  0
   22.0887   18.4286   25.9171 H   0  0  0  0  0  0  0  0  0  0  0  0
   20.7430   18.0163   24.2643 C   0  0  0  0  0  0  0  0  0  0  0  0
   19.7193   17.9171   24.6504 H   0  0  0  0  0  0  0  0  0  0  0  0
   21.1937   17.0190   24.3594 H   0  0  0  0  0  0  0  0  0  0  0  0
   20.7055   18.3683   22.7557 C   0  0  0  0  0  0  0  0  0  0  0  0
   21.7281   18.3682   22.3548 H   0  0  0  0  0  0  0  0  0  0  0  0
   20.1712   17.5623   22.2373 H   0  0  0  0  0  0  0  0  0  0  0  0
   20.0292   19.7233   22.4374 C   0  0  0  0  0  0  0  0  0  0  0  0
   20.6122   20.5306   22.8981 H   0  0  0  0  0  0  0  0  0  0  0  0
   19.0289   19.7558   22.8904 H   0  0  0  0  0  0  0  0  0  0  0  0
   19.9243   20.0193   20.9229 C   0  0  0  0  0  0  0  0  0  0  0  0
   19.5832   21.0554   20.7910 H   0  0  0  0  0  0  0  0  0  0  0  0
   20.9202   19.9601   20.4627 H   0  0  0  0  0  0  0  0  0  0  0  0
   18.9492   19.0806   20.1790 C   0  0  0  0  0  0  0  0  0  0  0  0
   19.3104   18.0449   20.1767 H   0  0  0  0  0  0  0  0  0  0  0  0
   17.9552   19.0981   20.6444 H   0  0  0  0  0  0  0  0  0  0  0  0
   18.8378   19.3947   19.1331 H   0  0  0  0  0  0  0  0  0  0  0  0
  1  2  1  0  0  0  0
  1  3  2  0  0  0  0
  1  4  1  0  0  0  0
  4  5  1  0  0  0  0
  4  6  1  0  0  0  0
  4  7  1  0  0  0  0
  7  8  1  0  0  0  0
  7  9  1  0  0  0  0
  7 10  1  0  0  0  0
 10 11  1  0  0  0  0
 10 12  1  0  0  0  0
 10 13  1  0  0  0  0
 13 14  1  0  0  0  0
 13 15  1  0  0  0  0
 13 16  1  0  0  0  0
 16 17  1  0  0  0  0
 16 18  1  0  0  0  0
 16 19  1  0  0  0  0
 19 20  1  0  0  0  0
 19 21  1  0  0  0  0
 19 22  1  0  0  0  0
 22 23  1  0  0  0  0
 22 24  1  0  0  0  0
 22 25  1  0  0  0  0
M  END
> <VM2 Rank>
154

> <Conf_Id>
552

> <Probability>
0.00

> <Sum Probability>
99.99

> <Delta G>
6.394

> <G>
-1.568

> <E>
-26.775

> <-TS>
25.207

> <U+W>
-47.343

> <U>
12.779

> <W>
-60.122

> <W(PB)>
-62.528

> <W(SA)>
2.405

> <Valence>
11.506

> <Coulomb>
0.275

> <VdW>
0.999

> <VdW6>
-10.780

> <VdW12>
11.778

> <Bond>
0.274

> <Angle>
3.484

> <Pdih>
7.747

> <Idih>
0.001

> <Tether>
0.000

$$$$
VeraChem MOL file


 25 24  0  0  0  0  0  0  0  0999 V2000     
   19.8667   19.2984   27.1482 C   0  0  0  0  0  0  0  0  0  0  0  0
   20.8146   19.0629   27.8714 O   0  5  0  0  0  0  0  0  0  0  0  0
   18.7971   18.7278   27.2342 O   0  0  0  0  0  0  0  0  0  0  0  0
   20.0241   20.3842   26.0873 C   0  0  0  0  0  0  0  0  0  0  0  0
   20.4991   21.2466   26.5696 H   0  0  0  0  0  0  0  0  0  0  0  0
   19.0265   20.7088   25.7676 H   0  0  0  0  0  0  0  0  0  0  0  0
   20.8649   19.9501   24.8584 C   0  0  0  0  0  0  0  0  0  0  0  0
   21.0475   20.8318   24.2316 H   0  0  0  0  0  0  0  0  0  0  0  0
   21.8481   19.5966   25.1983 H   0  0  0  0  0  0  0  0  0  0  0  0
   20.1706   18.8456   24.0249 C   0  0  0  0  0  0  0  0  0  0  0  0
   19.1835   19.1949   23.6992 H   0  0  0  0  0  0  0  0  0  0  0  0
   19.9906   17.9747   24.6698 H   0  0  0  0  0  0  0  0  0  0  0  0
   21.0094   18.3831   22.8066 C   0  0  0  0  0  0  0  0  0  0  0  0
   22.0289   18.1643   23.1521 H   0  0  0  0  0  0  0  0  0  0  0  0
   20.6135   17.4296   22.4316 H   0  0  0  0  0  0  0  0  0  0  0  0
   21.0807   19.4042   21.6397 C   0  0  0  0  0  0  0  0  0  0  0  0
   22.0808   19.3377   21.1902 H   0  0  0  0  0  0  0  0  0  0  0  0
   20.9904   20.4321   22.0117 H   0  0  0  0  0  0  0  0  0  0  0  0
   20.0464   19.1640   20.5123 C   0  0  0  0  0  0  0  0  0  0  0  0
   20.2407   19.8803   19.7021 H   0  0  0  0  0  0  0  0  0  0  0  0
   20.1960   18.1646   20.0811 H   0  0  0  0  0  0  0  0  0  0  0  0
   18.5785   19.3137   20.9631 C   0  0  0  0  0  0  0  0  0  0  0  0
   18.2962   18.5172   21.6627 H   0  0  0  0  0  0  0  0  0  0  0  0
   18.4139   20.2823   21.4527 H   0  0  0  0  0  0  0  0  0  0  0  0
   17.9032   19.2509   20.1000 H   0  0  0  0  0  0  0  0  0  0  0  0
  1  2  1  0  0  0  0
  1  3  2  0  0  0  0
  1  4  1  0  0  0  0
  4  5  1  0  0  0  0
  4  6  1  0  0  0  0
  4  7  1  0  0  0  0
  7  8  1  0  0  0  0
  7  9  1  0  0  0  0
  7 10  1  0  0  0  0
 10 11  1  0  0  0  0
 10 12  1  0  0  0  0
 10 13  1  0  0  0  0
 13 14  1  0  0  0  0
 13 15  1  0  0  0  0
 13 16  1  0  0  0  0
 16 17  1  0  0  0  0
 16 18  1  0  0  0  0
 16 19  1  0  0  0  0
 19 20  1  0  0  0  0
 19 21  1  0  0  0  0
 19 22  1  0  0  0  0
 22 23  1  0  0  0  0
 22 24  1  0  0  0  0
 22 25  1  0  0  0  0
M  END
> <VM2 Rank>
155

> <Conf_Id>
81

> <Probability>
0.00

> <Sum Probability>
99.99

> <Delta G>
6.404

> <G>
-1.558

> <E>
-26.694

> <-TS>
25.136

> <U+W>
-47.262

> <U>
12.718

> <W>
-59.980

> <W(PB)>
-62.377

> <W(SA)>
2.397

> <Valence>
11.548

> <Coulomb>
0.195

> <VdW>
0.975

> <VdW6>
-10.625

> <VdW12>
11.599

> <Bond>
0.265

> <Angle>
3.380

> <Pdih>
7.902

> <Idih>
0.001

> <Tether>
0.000

$$$$
VeraChem MOL file


 25 24  0  0  0  0  0  0  0  0999 V2000     
   20.2901   19.8122   26.3971 C   0  0  0  0  0  0  0  0  0  0  0  0
   21.2922   20.4536   26.1477 O   0  5  0  0  0  0  0  0  0  0  0  0
   19.2505   20.3133   26.7788 O   0  0  0  0  0  0  0  0  0  0  0  0
   20.3757   18.2888   26.3332 C   0  0  0  0  0  0  0  0  0  0  0  0
   19.4518   17.8623   26.7421 H   0  0  0  0  0  0  0  0  0  0  0  0
   21.1834   17.9968   27.0143 H   0  0  0  0  0  0  0  0  0  0  0  0
   20.6659   17.6991   24.9244 C   0  0  0  0  0  0  0  0  0  0  0  0
   21.4584   18.2760   24.4293 H   0  0  0  0  0  0  0  0  0  0  0  0
   21.0763   16.6897   25.0613 H   0  0  0  0  0  0  0  0  0  0  0  0
   19.4223   17.5752   24.0059 C   0  0  0  0  0  0  0  0  0  0  0  0
   18.6590   16.9769   24.5214 H   0  0  0  0  0  0  0  0  0  0  0  0
   19.6987   16.9935   23.1169 H   0  0  0  0  0  0  0  0  0  0  0  0
   18.7812   18.9124   23.5527 C   0  0  0  0  0  0  0  0  0  0  0  0
   17.9215   18.6854   22.9080 H   0  0  0  0  0  0  0  0  0  0  0  0
   18.3646   19.4310   24.4254 H   0  0  0  0  0  0  0  0  0  0  0  0
   19.7267   19.8787   22.7954 C   0  0  0  0  0  0  0  0  0  0  0  0
   20.5461   20.1953   23.4539 H   0  0  0  0  0  0  0  0  0  0  0  0
   19.1650   20.7907   22.5524 H   0  0  0  0  0  0  0  0  0  0  0  0
   20.3046   19.2820   21.4923 C   0  0  0  0  0  0  0  0  0  0  0  0
   20.9349   18.4133   21.7241 H   0  0  0  0  0  0  0  0  0  0  0  0
   19.4857   18.9239   20.8534 H   0  0  0  0  0  0  0  0  0  0  0  0
   21.1439   20.3187   20.7185 C   0  0  0  0  0  0  0  0  0  0  0  0
   21.5513   19.8784   19.7993 H   0  0  0  0  0  0  0  0  0  0  0  0
   20.5340   21.1872   20.4372 H   0  0  0  0  0  0  0  0  0  0  0  0
   21.9860   20.6736   21.3270 H   0  0  0  0  0  0  0  0  0  0  0  0
  1  2  1  0  0  0  0
  1  3  2  0  0  0  0
  1  4  1  0  0  0  0
  4  5  1  0  0  0  0
  4  6  1  0  0  0  0
  4  7  1  0  0  0  0
  7  8  1  0  0  0  0
  7  9  1  0  0  0  0
  7 10  1  0  0  0  0
 10 11  1  0  0  0  0
 10 12  1  0  0  0  0
 10 13  1  0  0  0  0
 13 14  1  0  0  0  0
 13 15  1  0  0  0  0
 13 16  1  0  0  0  0
 16 17  1  0  0  0  0
 16 18  1  0  0  0  0
 16 19  1  0  0  0  0
 19 20  1  0  0  0  0
 19 21  1  0  0  0  0
 19 22  1  0  0  0  0
 22 23  1  0  0  0  0
 22 24  1  0  0  0  0
 22 25  1  0  0  0  0
M  END
> <VM2 Rank>
156

> <Conf_Id>
253

> <Probability>
0.00

> <Sum Probability>
99.99

> <Delta G>
6.407

> <G>
-1.555

> <E>
-27.545

> <-TS>
25.989

> <U+W>
-48.112

> <U>
13.027

> <W>
-61.139

> <W(PB)>
-63.503

> <W(SA)>
2.364

> <Valence>
10.559

> <Coulomb>
2.239

> <VdW>
0.229

> <VdW6>
-12.344

> <VdW12>
12.573

> <Bond>
0.282

> <Angle>
4.052

> <Pdih>
6.208

> <Idih>
0.016

> <Tether>
0.000

$$$$
VeraChem MOL file


 25 24  0  0  0  0  0  0  0  0999 V2000     
   20.1086   19.1549   27.1014 C   0  0  0  0  0  0  0  0  0  0  0  0
   21.0396   19.4422   27.8281 O   0  5  0  0  0  0  0  0  0  0  0  0
   18.9605   19.4912   27.3153 O   0  0  0  0  0  0  0  0  0  0  0  0
   20.3965   18.3064   25.8659 C   0  0  0  0  0  0  0  0  0  0  0  0
   19.4526   17.8833   25.5058 H   0  0  0  0  0  0  0  0  0  0  0  0
   21.0119   17.4595   26.1911 H   0  0  0  0  0  0  0  0  0  0  0  0
   21.1337   19.0686   24.7299 C   0  0  0  0  0  0  0  0  0  0  0  0
   22.0786   19.4600   25.1316 H   0  0  0  0  0  0  0  0  0  0  0  0
   21.4099   18.3570   23.9432 H   0  0  0  0  0  0  0  0  0  0  0  0
   20.3262   20.2467   24.1243 C   0  0  0  0  0  0  0  0  0  0  0  0
   20.9917   20.8673   23.5091 H   0  0  0  0  0  0  0  0  0  0  0  0
   19.9918   20.8988   24.9427 H   0  0  0  0  0  0  0  0  0  0  0  0
   19.0912   19.8270   23.2833 C   0  0  0  0  0  0  0  0  0  0  0  0
   18.6803   18.8739   23.6375 H   0  0  0  0  0  0  0  0  0  0  0  0
   18.2993   20.5697   23.4505 H   0  0  0  0  0  0  0  0  0  0  0  0
   19.3450   19.7531   21.7566 C   0  0  0  0  0  0  0  0  0  0  0  0
   19.6640   20.7386   21.3906 H   0  0  0  0  0  0  0  0  0  0  0  0
   18.3902   19.5346   21.2592 H   0  0  0  0  0  0  0  0  0  0  0  0
   20.3827   18.6891   21.3375 C   0  0  0  0  0  0  0  0  0  0  0  0
   21.3727   18.9611   21.7262 H   0  0  0  0  0  0  0  0  0  0  0  0
   20.1163   17.7175   21.7756 H   0  0  0  0  0  0  0  0  0  0  0  0
   20.4689   18.5547   19.8036 C   0  0  0  0  0  0  0  0  0  0  0  0
   20.7583   19.5077   19.3419 H   0  0  0  0  0  0  0  0  0  0  0  0
   21.2162   17.8012   19.5230 H   0  0  0  0  0  0  0  0  0  0  0  0
   19.5033   18.2477   19.3808 H   0  0  0  0  0  0  0  0  0  0  0  0
  1  2  1  0  0  0  0
  1  3  2  0  0  0  0
  1  4  1  0  0  0  0
  4  5  1  0  0  0  0
  4  6  1  0  0  0  0
  4  7  1  0  0  0  0
  7  8  1  0  0  0  0
  7  9  1  0  0  0  0
  7 10  1  0  0  0  0
 10 11  1  0  0  0  0
 10 12  1  0  0  0  0
 10 13  1  0  0  0  0
 13 14  1  0  0  0  0
 13 15  1  0  0  0  0
 13 16  1  0  0  0  0
 16 17  1  0  0  0  0
 16 18  1  0  0  0  0
 16 19  1  0  0  0  0
 19 20  1  0  0  0  0
 19 21  1  0  0  0  0
 19 22  1  0  0  0  0
 22 23  1  0  0  0  0
 22 24  1  0  0  0  0
 22 25  1  0  0  0  0
M  END
> <VM2 Rank>
157

> <Conf_Id>
86

> <Probability>
0.00

> <Sum Probability>
100.00

> <Delta G>
6.440

> <G>
-1.522

> <E>
-26.607

> <-TS>
25.085

> <U+W>
-47.174

> <U>
12.590

> <W>
-59.764

> <W(PB)>
-62.181

> <W(SA)>
2.417

> <Valence>
11.587

> <Coulomb>
0.121

> <VdW>
0.881

> <VdW6>
-10.830

> <VdW12>
11.711

> <Bond>
0.286

> <Angle>
3.541

> <Pdih>
7.759

> <Idih>
0.001

> <Tether>
0.000

$$$$
VeraChem MOL file


 25 24  0  0  0  0  0  0  0  0999 V2000     
   20.3790   18.7811   26.4096 C   0  0  0  0  0  0  0  0  0  0  0  0
   21.4765   18.3149   26.1735 O   0  5  0  0  0  0  0  0  0  0  0  0
   19.4396   18.1188   26.8051 O   0  0  0  0  0  0  0  0  0  0  0  0
   20.2028   20.2948   26.3090 C   0  0  0  0  0  0  0  0  0  0  0  0
   20.9472   20.7369   26.9813 H   0  0  0  0  0  0  0  0  0  0  0  0
   19.2187   20.5666   26.7094 H   0  0  0  0  0  0  0  0  0  0  0  0
   20.3909   20.8914   24.8858 C   0  0  0  0  0  0  0  0  0  0  0  0
   20.6223   21.9591   24.9977 H   0  0  0  0  0  0  0  0  0  0  0  0
   21.2714   20.4469   24.4031 H   0  0  0  0  0  0  0  0  0  0  0  0
   19.1463   20.7787   23.9672 C   0  0  0  0  0  0  0  0  0  0  0  0
   19.3210   21.3777   23.0639 H   0  0  0  0  0  0  0  0  0  0  0  0
   18.2908   21.2499   24.4697 H   0  0  0  0  0  0  0  0  0  0  0  0
   18.7442   19.3411   23.5475 C   0  0  0  0  0  0  0  0  0  0  0  0
   18.4207   18.7800   24.4332 H   0  0  0  0  0  0  0  0  0  0  0  0
   17.8597   19.4022   22.8993 H   0  0  0  0  0  0  0  0  0  0  0  0
   19.8426   18.5329   22.8116 C   0  0  0  0  0  0  0  0  0  0  0  0
   19.4456   17.5327   22.5917 H   0  0  0  0  0  0  0  0  0  0  0  0
   20.7027   18.3769   23.4758 H   0  0  0  0  0  0  0  0  0  0  0  0
   20.3127   19.1882   21.4934 C   0  0  0  0  0  0  0  0  0  0  0  0
   19.4460   19.3856   20.8478 H   0  0  0  0  0  0  0  0  0  0  0  0
   20.7846   20.1572   21.7031 H   0  0  0  0  0  0  0  0  0  0  0  0
   21.3185   18.2921   20.7430 C   0  0  0  0  0  0  0  0  0  0  0  0
   20.8668   17.3257   20.4838 H   0  0  0  0  0  0  0  0  0  0  0  0
   21.6466   18.7735   19.8127 H   0  0  0  0  0  0  0  0  0  0  0  0
   22.2077   18.1011   21.3582 H   0  0  0  0  0  0  0  0  0  0  0  0
  1  2  1  0  0  0  0
  1  3  2  0  0  0  0
  1  4  1  0  0  0  0
  4  5  1  0  0  0  0
  4  6  1  0  0  0  0
  4  7  1  0  0  0  0
  7  8  1  0  0  0  0
  7  9  1  0  0  0  0
  7 10  1  0  0  0  0
 10 11  1  0  0  0  0
 10 12  1  0  0  0  0
 10 13  1  0  0  0  0
 13 14  1  0  0  0  0
 13 15  1  0  0  0  0
 13 16  1  0  0  0  0
 16 17  1  0  0  0  0
 16 18  1  0  0  0  0
 16 19  1  0  0  0  0
 19 20  1  0  0  0  0
 19 21  1  0  0  0  0
 19 22  1  0  0  0  0
 22 23  1  0  0  0  0
 22 24  1  0  0  0  0
 22 25  1  0  0  0  0
M  END
> <VM2 Rank>
158

> <Conf_Id>
223

> <Probability>
0.00

> <Sum Probability>
100.00

> <Delta G>
6.451

> <G>
-1.512

> <E>
-27.501

> <-TS>
25.989

> <U+W>
-48.068

> <U>
13.028

> <W>
-61.097

> <W(PB)>
-63.471

> <W(SA)>
2.374

> <Valence>
10.559

> <Coulomb>
2.240

> <VdW>
0.229

> <VdW6>
-12.344

> <VdW12>
12.573

> <Bond>
0.282

> <Angle>
4.052

> <Pdih>
6.208

> <Idih>
0.017

> <Tether>
0.000

$$$$
VeraChem MOL file


 25 24  0  0  0  0  0  0  0  0999 V2000     
   20.0118   19.5773   27.0409 C   0  0  0  0  0  0  0  0  0  0  0  0
   20.9291   19.1880   27.7368 O   0  5  0  0  0  0  0  0  0  0  0  0
   18.8408   19.3793   27.2994 O   0  0  0  0  0  0  0  0  0  0  0  0
   20.3505   20.3763   25.7857 C   0  0  0  0  0  0  0  0  0  0  0  0
   21.1058   21.1203   26.0649 H   0  0  0  0  0  0  0  0  0  0  0  0
   19.4582   20.9317   25.4723 H   0  0  0  0  0  0  0  0  0  0  0  0
   20.8826   19.5141   24.6116 C   0  0  0  0  0  0  0  0  0  0  0  0
   21.2353   20.1852   23.8187 H   0  0  0  0  0  0  0  0  0  0  0  0
   21.7553   18.9377   24.9485 H   0  0  0  0  0  0  0  0  0  0  0  0
   19.8084   18.5542   24.0459 C   0  0  0  0  0  0  0  0  0  0  0  0
   18.9282   19.1198   23.7160 H   0  0  0  0  0  0  0  0  0  0  0  0
   19.4563   17.8979   24.8534 H   0  0  0  0  0  0  0  0  0  0  0  0
   20.3264   17.6627   22.8915 C   0  0  0  0  0  0  0  0  0  0  0  0
   21.1592   17.0530   23.2671 H   0  0  0  0  0  0  0  0  0  0  0  0
   19.5357   16.9517   22.6161 H   0  0  0  0  0  0  0  0  0  0  0  0
   20.7951   18.4050   21.6117 C   0  0  0  0  0  0  0  0  0  0  0  0
   21.1842   17.6441   20.9216 H   0  0  0  0  0  0  0  0  0  0  0  0
   21.6479   19.0603   21.8316 H   0  0  0  0  0  0  0  0  0  0  0  0
   19.6838   19.1906   20.8704 C   0  0  0  0  0  0  0  0  0  0  0  0
   19.8738   19.1260   19.7901 H   0  0  0  0  0  0  0  0  0  0  0  0
   18.7067   18.7168   21.0368 H   0  0  0  0  0  0  0  0  0  0  0  0
   19.6245   20.6864   21.2521 C   0  0  0  0  0  0  0  0  0  0  0  0
   18.8575   21.2025   20.6604 H   0  0  0  0  0  0  0  0  0  0  0  0
   19.3787   20.8287   22.3100 H   0  0  0  0  0  0  0  0  0  0  0  0
   20.5862   21.1784   21.0571 H   0  0  0  0  0  0  0  0  0  0  0  0
  1  2  1  0  0  0  0
  1  3  2  0  0  0  0
  1  4  1  0  0  0  0
  4  5  1  0  0  0  0
  4  6  1  0  0  0  0
  4  7  1  0  0  0  0
  7  8  1  0  0  0  0
  7  9  1  0  0  0  0
  7 10  1  0  0  0  0
 10 11  1  0  0  0  0
 10 12  1  0  0  0  0
 10 13  1  0  0  0  0
 13 14  1  0  0  0  0
 13 15  1  0  0  0  0
 13 16  1  0  0  0  0
 16 17  1  0  0  0  0
 16 18  1  0  0  0  0
 16 19  1  0  0  0  0
 19 20  1  0  0  0  0
 19 21  1  0  0  0  0
 19 22  1  0  0  0  0
 22 23  1  0  0  0  0
 22 24  1  0  0  0  0
 22 25  1  0  0  0  0
M  END
> <VM2 Rank>
159

> <Conf_Id>
830

> <Probability>
0.00

> <Sum Probability>
100.00

> <Delta G>
6.502

> <G>
-1.460

> <E>
-26.986

> <-TS>
25.526

> <U+W>
-47.553

> <U>
12.525

> <W>
-60.078

> <W(PB)>
-62.471

> <W(SA)>
2.393

> <Valence>
11.399

> <Coulomb>
0.533

> <VdW>
0.593

> <VdW6>
-11.288

> <VdW12>
11.881

> <Bond>
0.261

> <Angle>
3.785

> <Pdih>
7.352

> <Idih>
0.001

> <Tether>
0.000

$$$$
VeraChem MOL file


 25 24  0  0  0  0  0  0  0  0999 V2000     
   20.0719   19.4765   26.9916 C   0  0  0  0  0  0  0  0  0  0  0  0
   21.0302   19.7541   27.6860 O   0  5  0  0  0  0  0  0  0  0  0  0
   19.0773   20.1701   26.9099 O   0  0  0  0  0  0  0  0  0  0  0  0
   20.1099   18.1703   26.2033 C   0  0  0  0  0  0  0  0  0  0  0  0
   19.0946   17.9344   25.8649 H   0  0  0  0  0  0  0  0  0  0  0  0
   20.3958   17.3761   26.9027 H   0  0  0  0  0  0  0  0  0  0  0  0
   21.0989   18.1803   25.0056 C   0  0  0  0  0  0  0  0  0  0  0  0
   22.1149   18.3483   25.3888 H   0  0  0  0  0  0  0  0  0  0  0  0
   21.1074   17.1868   24.5374 H   0  0  0  0  0  0  0  0  0  0  0  0
   20.7902   19.2478   23.9272 C   0  0  0  0  0  0  0  0  0  0  0  0
   21.5884   19.2195   23.1761 H   0  0  0  0  0  0  0  0  0  0  0  0
   20.8323   20.2494   24.3766 H   0  0  0  0  0  0  0  0  0  0  0  0
   19.4157   19.0495   23.2416 C   0  0  0  0  0  0  0  0  0  0  0  0
   19.3005   18.0097   22.9068 H   0  0  0  0  0  0  0  0  0  0  0  0
   18.6282   19.2237   23.9869 H   0  0  0  0  0  0  0  0  0  0  0  0
   19.1792   20.0191   22.0558 C   0  0  0  0  0  0  0  0  0  0  0  0
   19.7419   20.9504   22.2076 H   0  0  0  0  0  0  0  0  0  0  0  0
   18.1192   20.3077   22.0568 H   0  0  0  0  0  0  0  0  0  0  0  0
   19.4990   19.4237   20.6621 C   0  0  0  0  0  0  0  0  0  0  0  0
   18.8689   18.5409   20.4863 H   0  0  0  0  0  0  0  0  0  0  0  0
   19.2182   20.1590   19.8955 H   0  0  0  0  0  0  0  0  0  0  0  0
   20.9807   19.0426   20.4627 C   0  0  0  0  0  0  0  0  0  0  0  0
   21.2644   18.2046   21.1117 H   0  0  0  0  0  0  0  0  0  0  0  0
   21.1615   18.7337   19.4251 H   0  0  0  0  0  0  0  0  0  0  0  0
   21.6390   19.8930   20.6827 H   0  0  0  0  0  0  0  0  0  0  0  0
  1  2  1  0  0  0  0
  1  3  2  0  0  0  0
  1  4  1  0  0  0  0
  4  5  1  0  0  0  0
  4  6  1  0  0  0  0
  4  7  1  0  0  0  0
  7  8  1  0  0  0  0
  7  9  1  0  0  0  0
  7 10  1  0  0  0  0
 10 11  1  0  0  0  0
 10 12  1  0  0  0  0
 10 13  1  0  0  0  0
 13 14  1  0  0  0  0
 13 15  1  0  0  0  0
 13 16  1  0  0  0  0
 16 17  1  0  0  0  0
 16 18  1  0  0  0  0
 16 19  1  0  0  0  0
 19 20  1  0  0  0  0
 19 21  1  0  0  0  0
 19 22  1  0  0  0  0
 22 23  1  0  0  0  0
 22 24  1  0  0  0  0
 22 25  1  0  0  0  0
M  END
> <VM2 Rank>
160

> <Conf_Id>
266

> <Probability>
0.00

> <Sum Probability>
100.00

> <Delta G>
6.523

> <G>
-1.439

> <E>
-26.700

> <-TS>
25.261

> <U+W>
-47.268

> <U>
12.990

> <W>
-60.258

> <W(PB)>
-62.651

> <W(SA)>
2.393

> <Valence>
11.321

> <Coulomb>
0.925

> <VdW>
0.744

> <VdW6>
-11.101

> <VdW12>
11.845

> <Bond>
0.264

> <Angle>
3.450

> <Pdih>
7.606

> <Idih>
0.001

> <Tether>
0.000

$$$$
VeraChem MOL file


 25 24  0  0  0  0  0  0  0  0999 V2000     
   20.0917   19.8293   26.7357 C   0  0  0  0  0  0  0  0  0  0  0  0
   21.0739   20.5393   26.8261 O   0  5  0  0  0  0  0  0  0  0  0  0
   18.9529   20.2379   26.8514 O   0  0  0  0  0  0  0  0  0  0  0  0
   20.3033   18.3375   26.4925 C   0  0  0  0  0  0  0  0  0  0  0  0
   19.3923   17.8021   26.7860 H   0  0  0  0  0  0  0  0  0  0  0  0
   21.0991   18.0045   27.1690 H   0  0  0  0  0  0  0  0  0  0  0  0
   20.6849   17.9862   25.0310 C   0  0  0  0  0  0  0  0  0  0  0  0
   21.5852   18.5494   24.7532 H   0  0  0  0  0  0  0  0  0  0  0  0
   20.9500   16.9218   24.9787 H   0  0  0  0  0  0  0  0  0  0  0  0
   19.5366   18.2757   24.0340 C   0  0  0  0  0  0  0  0  0  0  0  0
   19.2780   19.3410   24.0651 H   0  0  0  0  0  0  0  0  0  0  0  0
   18.6402   17.7328   24.3632 H   0  0  0  0  0  0  0  0  0  0  0  0
   19.8650   17.8444   22.5822 C   0  0  0  0  0  0  0  0  0  0  0  0
   20.2265   16.8073   22.6031 H   0  0  0  0  0  0  0  0  0  0  0  0
   18.9406   17.8234   21.9893 H   0  0  0  0  0  0  0  0  0  0  0  0
   20.9174   18.7295   21.8620 C   0  0  0  0  0  0  0  0  0  0  0  0
   21.5202   18.0805   21.2124 H   0  0  0  0  0  0  0  0  0  0  0  0
   21.6214   19.1653   22.5815 H   0  0  0  0  0  0  0  0  0  0  0  0
   20.3178   19.8485   20.9750 C   0  0  0  0  0  0  0  0  0  0  0  0
   21.1390   20.3529   20.4474 H   0  0  0  0  0  0  0  0  0  0  0  0
   19.6814   19.4028   20.1981 H   0  0  0  0  0  0  0  0  0  0  0  0
   19.5096   20.9055   21.7561 C   0  0  0  0  0  0  0  0  0  0  0  0
   20.1002   21.3208   22.5832 H   0  0  0  0  0  0  0  0  0  0  0  0
   19.2206   21.7335   21.0961 H   0  0  0  0  0  0  0  0  0  0  0  0
   18.5889   20.4743   22.1684 H   0  0  0  0  0  0  0  0  0  0  0  0
  1  2  1  0  0  0  0
  1  3  2  0  0  0  0
  1  4  1  0  0  0  0
  4  5  1  0  0  0  0
  4  6  1  0  0  0  0
  4  7  1  0  0  0  0
  7  8  1  0  0  0  0
  7  9  1  0  0  0  0
  7 10  1  0  0  0  0
 10 11  1  0  0  0  0
 10 12  1  0  0  0  0
 10 13  1  0  0  0  0
 13 14  1  0  0  0  0
 13 15  1  0  0  0  0
 13 16  1  0  0  0  0
 16 17  1  0  0  0  0
 16 18  1  0  0  0  0
 16 19  1  0  0  0  0
 19 20  1  0  0  0  0
 19 21  1  0  0  0  0
 19 22  1  0  0  0  0
 22 23  1  0  0  0  0
 22 24  1  0  0  0  0
 22 25  1  0  0  0  0
M  END
> <VM2 Rank>
161

> <Conf_Id>
91

> <Probability>
0.00

> <Sum Probability>
100.00

> <Delta G>
6.640

> <G>
-1.322

> <E>
-26.453

> <-TS>
25.130

> <U+W>
-47.020

> <U>
13.848

> <W>
-60.869

> <W(PB)>
-63.247

> <W(SA)>
2.378

> <Valence>
11.487

> <Coulomb>
1.558

> <VdW>
0.803

> <VdW6>
-10.837

> <VdW12>
11.640

> <Bond>
0.263

> <Angle>
3.375

> <Pdih>
7.848

> <Idih>
0.001

> <Tether>
0.000

$$$$
VeraChem MOL file


 25 24  0  0  0  0  0  0  0  0999 V2000     
   20.1409   19.8325   26.7352 C   0  0  0  0  0  0  0  0  0  0  0  0
   21.2205   20.3832   26.8253 O   0  5  0  0  0  0  0  0  0  0  0  0
   19.0783   20.4115   26.8490 O   0  0  0  0  0  0  0  0  0  0  0  0
   20.1158   18.3255   26.4947 C   0  0  0  0  0  0  0  0  0  0  0  0
   19.3847   17.8947   27.1888 H   0  0  0  0  0  0  0  0  0  0  0  0
   21.0942   17.9112   26.7664 H   0  0  0  0  0  0  0  0  0  0  0  0
   19.7486   17.9262   25.0419 C   0  0  0  0  0  0  0  0  0  0  0  0
   19.6205   16.8365   24.9941 H   0  0  0  0  0  0  0  0  0  0  0  0
   18.7777   18.3694   24.7856 H   0  0  0  0  0  0  0  0  0  0  0  0
   20.8274   18.3585   24.0191 C   0  0  0  0  0  0  0  0  0  0  0  0
   21.7930   17.9350   24.3268 H   0  0  0  0  0  0  0  0  0  0  0  0
   20.9485   19.4482   24.0458 H   0  0  0  0  0  0  0  0  0  0  0  0
   20.5234   17.8866   22.5746 C   0  0  0  0  0  0  0  0  0  0  0  0
   21.4291   17.9830   21.9606 H   0  0  0  0  0  0  0  0  0  0  0  0
   20.2980   16.8119   22.6023 H   0  0  0  0  0  0  0  0  0  0  0  0
   19.3504   18.6290   21.8801 C   0  0  0  0  0  0  0  0  0  0  0  0
   18.6132   18.9724   22.6162 H   0  0  0  0  0  0  0  0  0  0  0  0
   18.8206   17.9074   21.2435 H   0  0  0  0  0  0  0  0  0  0  0  0
   19.7817   19.8141   20.9811 C   0  0  0  0  0  0  0  0  0  0  0  0
   20.4517   19.4521   20.1892 H   0  0  0  0  0  0  0  0  0  0  0  0
   18.8908   20.2086   20.4733 H   0  0  0  0  0  0  0  0  0  0  0  0
   20.4660   20.9669   21.7450 C   0  0  0  0  0  0  0  0  0  0  0  0
   21.4434   20.6574   22.1355 H   0  0  0  0  0  0  0  0  0  0  0  0
   20.6316   21.8240   21.0797 H   0  0  0  0  0  0  0  0  0  0  0  0
   19.8463   21.3046   22.5861 H   0  0  0  0  0  0  0  0  0  0  0  0
  1  2  1  0  0  0  0
  1  3  2  0  0  0  0
  1  4  1  0  0  0  0
  4  5  1  0  0  0  0
  4  6  1  0  0  0  0
  4  7  1  0  0  0  0
  7  8  1  0  0  0  0
  7  9  1  0  0  0  0
  7 10  1  0  0  0  0
 10 11  1  0  0  0  0
 10 12  1  0  0  0  0
 10 13  1  0  0  0  0
 13 14  1  0  0  0  0
 13 15  1  0  0  0  0
 13 16  1  0  0  0  0
 16 17  1  0  0  0  0
 16 18  1  0  0  0  0
 16 19  1  0  0  0  0
 19 20  1  0  0  0  0
 19 21  1  0  0  0  0
 19 22  1  0  0  0  0
 22 23  1  0  0  0  0
 22 24  1  0  0  0  0
 22 25  1  0  0  0  0
M  END
> <VM2 Rank>
162

> <Conf_Id>
562

> <Probability>
0.00

> <Sum Probability>
100.00

> <Delta G>
6.669

> <G>
-1.294

> <E>
-26.425

> <-TS>
25.131

> <U+W>
-46.992

> <U>
13.848

> <W>
-60.841

> <W(PB)>
-63.238

> <W(SA)>
2.398

> <Valence>
11.487

> <Coulomb>
1.559

> <VdW>
0.803

> <VdW6>
-10.837

> <VdW12>
11.640

> <Bond>
0.263

> <Angle>
3.375

> <Pdih>
7.848

> <Idih>
0.001

> <Tether>
0.000

$$$$
VeraChem MOL file


 25 24  0  0  0  0  0  0  0  0999 V2000     
   19.6763   19.1275   26.6444 C   0  0  0  0  0  0  0  0  0  0  0  0
   19.8255   18.1053   27.2849 O   0  5  0  0  0  0  0  0  0  0  0  0
   18.5918   19.5499   26.2947 O   0  0  0  0  0  0  0  0  0  0  0  0
   20.9182   19.9407   26.2895 C   0  0  0  0  0  0  0  0  0  0  0  0
   21.4870   20.0873   27.2150 H   0  0  0  0  0  0  0  0  0  0  0  0
   20.6026   20.9366   25.9581 H   0  0  0  0  0  0  0  0  0  0  0  0
   21.8315   19.2735   25.2250 C   0  0  0  0  0  0  0  0  0  0  0  0
   22.7259   19.8938   25.0779 H   0  0  0  0  0  0  0  0  0  0  0  0
   22.1862   18.3104   25.6174 H   0  0  0  0  0  0  0  0  0  0  0  0
   21.1467   19.0330   23.8572 C   0  0  0  0  0  0  0  0  0  0  0  0
   20.2868   18.3649   23.9967 H   0  0  0  0  0  0  0  0  0  0  0  0
   21.8522   18.5071   23.1998 H   0  0  0  0  0  0  0  0  0  0  0  0
   20.6847   20.3369   23.1656 C   0  0  0  0  0  0  0  0  0  0  0  0
   19.8606   20.7851   23.7368 H   0  0  0  0  0  0  0  0  0  0  0  0
   21.5084   21.0632   23.1853 H   0  0  0  0  0  0  0  0  0  0  0  0
   20.2346   20.1496   21.6949 C   0  0  0  0  0  0  0  0  0  0  0  0
   21.0716   19.7791   21.0875 H   0  0  0  0  0  0  0  0  0  0  0  0
   19.9930   21.1439   21.2952 H   0  0  0  0  0  0  0  0  0  0  0  0
   18.9927   19.2420   21.5096 C   0  0  0  0  0  0  0  0  0  0  0  0
   18.3530   19.2861   22.4022 H   0  0  0  0  0  0  0  0  0  0  0  0
   18.3894   19.6381   20.6811 H   0  0  0  0  0  0  0  0  0  0  0  0
   19.3509   17.7756   21.1802 C   0  0  0  0  0  0  0  0  0  0  0  0
   18.4394   17.1814   21.0359 H   0  0  0  0  0  0  0  0  0  0  0  0
   19.9406   17.7155   20.2562 H   0  0  0  0  0  0  0  0  0  0  0  0
   19.9309   17.3071   21.9832 H   0  0  0  0  0  0  0  0  0  0  0  0
  1  2  1  0  0  0  0
  1  3  2  0  0  0  0
  1  4  1  0  0  0  0
  4  5  1  0  0  0  0
  4  6  1  0  0  0  0
  4  7  1  0  0  0  0
  7  8  1  0  0  0  0
  7  9  1  0  0  0  0
  7 10  1  0  0  0  0
 10 11  1  0  0  0  0
 10 12  1  0  0  0  0
 10 13  1  0  0  0  0
 13 14  1  0  0  0  0
 13 15  1  0  0  0  0
 13 16  1  0  0  0  0
 16 17  1  0  0  0  0
 16 18  1  0  0  0  0
 16 19  1  0  0  0  0
 19 20  1  0  0  0  0
 19 21  1  0  0  0  0
 19 22  1  0  0  0  0
 22 23  1  0  0  0  0
 22 24  1  0  0  0  0
 22 25  1  0  0  0  0
M  END
> <VM2 Rank>
163

> <Conf_Id>
531

> <Probability>
0.00

> <Sum Probability>
100.00

> <Delta G>
6.707

> <G>
-1.255

> <E>
-26.499

> <-TS>
25.244

> <U+W>
-47.066

> <U>
13.834

> <W>
-60.900

> <W(PB)>
-63.271

> <W(SA)>
2.371

> <Valence>
11.236

> <Coulomb>
1.974

> <VdW>
0.624

> <VdW6>
-11.284

> <VdW12>
11.908

> <Bond>
0.259

> <Angle>
3.439

> <Pdih>
7.536

> <Idih>
0.002

> <Tether>
0.000

$$$$
VeraChem MOL file


 25 24  0  0  0  0  0  0  0  0999 V2000     
   20.6581   19.5113   26.4915 C   0  0  0  0  0  0  0  0  0  0  0  0
   21.4585   20.2987   26.0270 O   0  5  0  0  0  0  0  0  0  0  0  0
   20.0751   19.6907   27.5432 O   0  0  0  0  0  0  0  0  0  0  0  0
   20.4095   18.2028   25.7439 C   0  0  0  0  0  0  0  0  0  0  0  0
   20.7112   17.3901   26.4146 H   0  0  0  0  0  0  0  0  0  0  0  0
   21.0776   18.1505   24.8776 H   0  0  0  0  0  0  0  0  0  0  0  0
   18.9351   17.9836   25.3105 C   0  0  0  0  0  0  0  0  0  0  0  0
   18.8335   16.9794   24.8775 H   0  0  0  0  0  0  0  0  0  0  0  0
   18.3037   17.9909   26.2098 H   0  0  0  0  0  0  0  0  0  0  0  0
   18.3800   19.0283   24.3087 C   0  0  0  0  0  0  0  0  0  0  0  0
   18.4519   20.0398   24.7317 H   0  0  0  0  0  0  0  0  0  0  0  0
   17.3054   18.8317   24.1932 H   0  0  0  0  0  0  0  0  0  0  0  0
   19.0261   18.9784   22.9002 C   0  0  0  0  0  0  0  0  0  0  0  0
   19.3980   17.9659   22.6979 H   0  0  0  0  0  0  0  0  0  0  0  0
   18.2438   19.1720   22.1538 H   0  0  0  0  0  0  0  0  0  0  0  0
   20.1499   20.0251   22.6992 C   0  0  0  0  0  0  0  0  0  0  0  0
   20.9731   19.8464   23.4005 H   0  0  0  0  0  0  0  0  0  0  0  0
   19.7553   21.0215   22.9398 H   0  0  0  0  0  0  0  0  0  0  0  0
   20.7082   20.0550   21.2572 C   0  0  0  0  0  0  0  0  0  0  0  0
   19.8924   20.2438   20.5460 H   0  0  0  0  0  0  0  0  0  0  0  0
   21.4017   20.9023   21.1662 H   0  0  0  0  0  0  0  0  0  0  0  0
   21.4522   18.7601   20.8645 C   0  0  0  0  0  0  0  0  0  0  0  0
   20.7707   17.9011   20.8292 H   0  0  0  0  0  0  0  0  0  0  0  0
   21.9068   18.8647   19.8709 H   0  0  0  0  0  0  0  0  0  0  0  0
   22.2531   18.5352   21.5809 H   0  0  0  0  0  0  0  0  0  0  0  0
  1  2  1  0  0  0  0
  1  3  2  0  0  0  0
  1  4  1  0  0  0  0
  4  5  1  0  0  0  0
  4  6  1  0  0  0  0
  4  7  1  0  0  0  0
  7  8  1  0  0  0  0
  7  9  1  0  0  0  0
  7 10  1  0  0  0  0
 10 11  1  0  0  0  0
 10 12  1  0  0  0  0
 10 13  1  0  0  0  0
 13 14  1  0  0  0  0
 13 15  1  0  0  0  0
 13 16  1  0  0  0  0
 16 17  1  0  0  0  0
 16 18  1  0  0  0  0
 16 19  1  0  0  0  0
 19 20  1  0  0  0  0
 19 21  1  0  0  0  0
 19 22  1  0  0  0  0
 22 23  1  0  0  0  0
 22 24  1  0  0  0  0
 22 25  1  0  0  0  0
M  END
> <VM2 Rank>
164

> <Conf_Id>
573

> <Probability>
0.00

> <Sum Probability>
100.00

> <Delta G>
6.827

> <G>
-1.136

> <E>
-26.349

> <-TS>
25.213

> <U+W>
-46.917

> <U>
13.927

> <W>
-60.844

> <W(PB)>
-63.215

> <W(SA)>
2.372

> <Valence>
11.622

> <Coulomb>
1.812

> <VdW>
0.493

> <VdW6>
-11.533

> <VdW12>
12.027

> <Bond>
0.265

> <Angle>
3.636

> <Pdih>
7.716

> <Idih>
0.004

> <Tether>
0.000

$$$$
VeraChem MOL file


 25 24  0  0  0  0  0  0  0  0999 V2000     
   19.8053   19.8305   26.2598 C   0  0  0  0  0  0  0  0  0  0  0  0
   18.5968   19.9342   26.1806 O   0  5  0  0  0  0  0  0  0  0  0  0
   20.5621   20.7819   26.2600 O   0  0  0  0  0  0  0  0  0  0  0  0
   20.3958   18.4393   26.4829 C   0  0  0  0  0  0  0  0  0  0  0  0
   19.5779   17.7148   26.5763 H   0  0  0  0  0  0  0  0  0  0  0  0
   20.8986   18.4716   27.4564 H   0  0  0  0  0  0  0  0  0  0  0  0
   21.4131   17.9703   25.4048 C   0  0  0  0  0  0  0  0  0  0  0  0
   22.0940   18.7919   25.1462 H   0  0  0  0  0  0  0  0  0  0  0  0
   22.0466   17.1944   25.8553 H   0  0  0  0  0  0  0  0  0  0  0  0
   20.7731   17.3640   24.1283 C   0  0  0  0  0  0  0  0  0  0  0  0
   20.1613   16.4985   24.4169 H   0  0  0  0  0  0  0  0  0  0  0  0
   21.5744   16.9656   23.4911 H   0  0  0  0  0  0  0  0  0  0  0  0
   19.9025   18.3247   23.2811 C   0  0  0  0  0  0  0  0  0  0  0  0
   19.4810   17.7482   22.4482 H   0  0  0  0  0  0  0  0  0  0  0  0
   19.0456   18.6748   23.8700 H   0  0  0  0  0  0  0  0  0  0  0  0
   20.6859   19.5361   22.7183 C   0  0  0  0  0  0  0  0  0  0  0  0
   21.5350   19.1834   22.1176 H   0  0  0  0  0  0  0  0  0  0  0  0
   21.1094   20.1137   23.5500 H   0  0  0  0  0  0  0  0  0  0  0  0
   19.8121   20.4919   21.8730 C   0  0  0  0  0  0  0  0  0  0  0  0
   18.9580   20.8375   22.4721 H   0  0  0  0  0  0  0  0  0  0  0  0
   20.4028   21.3862   21.6313 H   0  0  0  0  0  0  0  0  0  0  0  0
   19.3061   19.8611   20.5572 C   0  0  0  0  0  0  0  0  0  0  0  0
   18.7743   20.6080   19.9538 H   0  0  0  0  0  0  0  0  0  0  0  0
   20.1423   19.4765   19.9589 H   0  0  0  0  0  0  0  0  0  0  0  0
   18.6108   19.0348   20.7496 H   0  0  0  0  0  0  0  0  0  0  0  0
  1  2  1  0  0  0  0
  1  3  2  0  0  0  0
  1  4  1  0  0  0  0
  4  5  1  0  0  0  0
  4  6  1  0  0  0  0
  4  7  1  0  0  0  0
  7  8  1  0  0  0  0
  7  9  1  0  0  0  0
  7 10  1  0  0  0  0
 10 11  1  0  0  0  0
 10 12  1  0  0  0  0
 10 13  1  0  0  0  0
 13 14  1  0  0  0  0
 13 15  1  0  0  0  0
 13 16  1  0  0  0  0
 16 17  1  0  0  0  0
 16 18  1  0  0  0  0
 16 19  1  0  0  0  0
 19 20  1  0  0  0  0
 19 21  1  0  0  0  0
 19 22  1  0  0  0  0
 22 23  1  0  0  0  0
 22 24  1  0  0  0  0
 22 25  1  0  0  0  0
M  END
> <VM2 Rank>
165

> <Conf_Id>
262

> <Probability>
0.00

> <Sum Probability>
100.00

> <Delta G>
6.871

> <G>
-1.091

> <E>
-26.902

> <-TS>
25.811

> <U+W>
-47.469

> <U>
13.610

> <W>
-61.080

> <W(PB)>
-63.432

> <W(SA)>
2.352

> <Valence>
10.664

> <Coulomb>
2.596

> <VdW>
0.350

> <VdW6>
-12.153

> <VdW12>
12.503

> <Bond>
0.280

> <Angle>
4.004

> <Pdih>
6.364

> <Idih>
0.017

> <Tether>
0.000

$$$$
VeraChem MOL file


 25 24  0  0  0  0  0  0  0  0999 V2000     
   19.7619   19.6494   26.6190 C   0  0  0  0  0  0  0  0  0  0  0  0
   20.4873   19.8597   27.5717 O   0  5  0  0  0  0  0  0  0  0  0  0
   18.9686   20.4634   26.1893 O   0  0  0  0  0  0  0  0  0  0  0  0
   19.8146   18.2711   25.9628 C   0  0  0  0  0  0  0  0  0  0  0  0
   19.0421   18.2116   25.1884 H   0  0  0  0  0  0  0  0  0  0  0  0
   19.5374   17.5415   26.7322 H   0  0  0  0  0  0  0  0  0  0  0  0
   21.2029   17.8931   25.3798 C   0  0  0  0  0  0  0  0  0  0  0  0
   21.9446   17.9368   26.1894 H   0  0  0  0  0  0  0  0  0  0  0  0
   21.1802   16.8468   25.0466 H   0  0  0  0  0  0  0  0  0  0  0  0
   21.6906   18.7879   24.2117 C   0  0  0  0  0  0  0  0  0  0  0  0
   22.7285   18.5031   23.9914 H   0  0  0  0  0  0  0  0  0  0  0  0
   21.7323   19.8398   24.5263 H   0  0  0  0  0  0  0  0  0  0  0  0
   20.8687   18.6421   22.9054 C   0  0  0  0  0  0  0  0  0  0  0  0
   21.5675   18.6639   22.0592 H   0  0  0  0  0  0  0  0  0  0  0  0
   20.3791   17.6594   22.8734 H   0  0  0  0  0  0  0  0  0  0  0  0
   19.8241   19.7681   22.7093 C   0  0  0  0  0  0  0  0  0  0  0  0
   20.3368   20.7368   22.6376 H   0  0  0  0  0  0  0  0  0  0  0  0
   19.1774   19.8314   23.5920 H   0  0  0  0  0  0  0  0  0  0  0  0
   18.9286   19.5650   21.4648 C   0  0  0  0  0  0  0  0  0  0  0  0
   18.4056   18.6015   21.5384 H   0  0  0  0  0  0  0  0  0  0  0  0
   18.1504   20.3406   21.4614 H   0  0  0  0  0  0  0  0  0  0  0  0
   19.7056   19.6343   20.1321 C   0  0  0  0  0  0  0  0  0  0  0  0
   20.4168   18.8041   20.0394 H   0  0  0  0  0  0  0  0  0  0  0  0
   19.0143   19.5757   19.2815 H   0  0  0  0  0  0  0  0  0  0  0  0
   20.2627   20.5767   20.0507 H   0  0  0  0  0  0  0  0  0  0  0  0
  1  2  1  0  0  0  0
  1  3  2  0  0  0  0
  1  4  1  0  0  0  0
  4  5  1  0  0  0  0
  4  6  1  0  0  0  0
  4  7  1  0  0  0  0
  7  8  1  0  0  0  0
  7  9  1  0  0  0  0
  7 10  1  0  0  0  0
 10 11  1  0  0  0  0
 10 12  1  0  0  0  0
 10 13  1  0  0  0  0
 13 14  1  0  0  0  0
 13 15  1  0  0  0  0
 13 16  1  0  0  0  0
 16 17  1  0  0  0  0
 16 18  1  0  0  0  0
 16 19  1  0  0  0  0
 19 20  1  0  0  0  0
 19 21  1  0  0  0  0
 19 22  1  0  0  0  0
 22 23  1  0  0  0  0
 22 24  1  0  0  0  0
 22 25  1  0  0  0  0
M  END
> <VM2 Rank>
166

> <Conf_Id>
233

> <Probability>
0.00

> <Sum Probability>
100.00

> <Delta G>
6.941

> <G>
-1.021

> <E>
-26.290

> <-TS>
25.269

> <U+W>
-46.858

> <U>
13.632

> <W>
-60.489

> <W(PB)>
-62.869

> <W(SA)>
2.379

> <Valence>
11.731

> <Coulomb>
1.281

> <VdW>
0.620

> <VdW6>
-11.358

> <VdW12>
11.978

> <Bond>
0.262

> <Angle>
3.562

> <Pdih>
7.904

> <Idih>
0.004

> <Tether>
0.000

$$$$
VeraChem MOL file


 25 24  0  0  0  0  0  0  0  0999 V2000     
   20.1939   19.9232   26.2550 C   0  0  0  0  0  0  0  0  0  0  0  0
   21.2235   20.5608   26.1494 O   0  5  0  0  0  0  0  0  0  0  0  0
   19.0895   20.4306   26.2775 O   0  0  0  0  0  0  0  0  0  0  0  0
   20.3001   18.4165   26.4840 C   0  0  0  0  0  0  0  0  0  0  0  0
   19.8589   18.2237   27.4687 H   0  0  0  0  0  0  0  0  0  0  0  0
   21.3588   18.1395   26.5550 H   0  0  0  0  0  0  0  0  0  0  0  0
   19.5800   17.5331   25.4266 C   0  0  0  0  0  0  0  0  0  0  0  0
   19.3751   16.5572   25.8871 H   0  0  0  0  0  0  0  0  0  0  0  0
   18.5959   17.9575   25.1878 H   0  0  0  0  0  0  0  0  0  0  0  0
   20.3957   17.2739   24.1328 C   0  0  0  0  0  0  0  0  0  0  0  0
   19.8464   16.5535   23.5116 H   0  0  0  0  0  0  0  0  0  0  0  0
   21.3385   16.7792   24.4029 H   0  0  0  0  0  0  0  0  0  0  0  0
   20.7199   18.5196   23.2714 C   0  0  0  0  0  0  0  0  0  0  0  0
   21.3396   19.2218   23.8428 H   0  0  0  0  0  0  0  0  0  0  0  0
   21.3374   18.1909   22.4261 H   0  0  0  0  0  0  0  0  0  0  0  0
   19.4618   19.2441   22.7328 C   0  0  0  0  0  0  0  0  0  0  0  0
   18.8419   19.5729   23.5768 H   0  0  0  0  0  0  0  0  0  0  0  0
   18.8500   18.5431   22.1494 H   0  0  0  0  0  0  0  0  0  0  0  0
   19.7911   20.4869   21.8733 C   0  0  0  0  0  0  0  0  0  0  0  0
   18.8551   21.0171   21.6497 H   0  0  0  0  0  0  0  0  0  0  0  0
   20.4104   21.1838   22.4550 H   0  0  0  0  0  0  0  0  0  0  0  0
   20.4976   20.1454   20.5432 C   0  0  0  0  0  0  0  0  0  0  0  0
   19.9119   19.4216   19.9617 H   0  0  0  0  0  0  0  0  0  0  0  0
   20.6215   21.0487   19.9320 H   0  0  0  0  0  0  0  0  0  0  0  0
   21.4952   19.7228   20.7156 H   0  0  0  0  0  0  0  0  0  0  0  0
  1  2  1  0  0  0  0
  1  3  2  0  0  0  0
  1  4  1  0  0  0  0
  4  5  1  0  0  0  0
  4  6  1  0  0  0  0
  4  7  1  0  0  0  0
  7  8  1  0  0  0  0
  7  9  1  0  0  0  0
  7 10  1  0  0  0  0
 10 11  1  0  0  0  0
 10 12  1  0  0  0  0
 10 13  1  0  0  0  0
 13 14  1  0  0  0  0
 13 15  1  0  0  0  0
 13 16  1  0  0  0  0
 16 17  1  0  0  0  0
 16 18  1  0  0  0  0
 16 19  1  0  0  0  0
 19 20  1  0  0  0  0
 19 21  1  0  0  0  0
 19 22  1  0  0  0  0
 22 23  1  0  0  0  0
 22 24  1  0  0  0  0
 22 25  1  0  0  0  0
M  END
> <VM2 Rank>
167

> <Conf_Id>
548

> <Probability>
0.00

> <Sum Probability>
100.00

> <Delta G>
6.948

> <G>
-1.015

> <E>
-26.826

> <-TS>
25.811

> <U+W>
-47.393

> <U>
13.609

> <W>
-61.003

> <W(PB)>
-63.344

> <W(SA)>
2.341

> <Valence>
10.664

> <Coulomb>
2.595

> <VdW>
0.350

> <VdW6>
-12.153

> <VdW12>
12.503

> <Bond>
0.280

> <Angle>
4.004

> <Pdih>
6.364

> <Idih>
0.017

> <Tether>
0.000

$$$$
VeraChem MOL file


 25 24  0  0  0  0  0  0  0  0999 V2000     
   19.7669   19.6318   27.0282 C   0  0  0  0  0  0  0  0  0  0  0  0
   19.9551   18.8080   27.9016 O   0  5  0  0  0  0  0  0  0  0  0  0
   18.7977   20.3639   26.9907 O   0  0  0  0  0  0  0  0  0  0  0  0
   20.7958   19.7410   25.9086 C   0  0  0  0  0  0  0  0  0  0  0  0
   21.7849   19.5313   26.3331 H   0  0  0  0  0  0  0  0  0  0  0  0
   20.8071   20.7795   25.5563 H   0  0  0  0  0  0  0  0  0  0  0  0
   20.5050   18.7813   24.7289 C   0  0  0  0  0  0  0  0  0  0  0  0
   20.4853   17.7475   25.1003 H   0  0  0  0  0  0  0  0  0  0  0  0
   19.5032   18.9905   24.3352 H   0  0  0  0  0  0  0  0  0  0  0  0
   21.5661   18.9089   23.6104 C   0  0  0  0  0  0  0  0  0  0  0  0
   22.5417   18.6356   24.0352 H   0  0  0  0  0  0  0  0  0  0  0  0
   21.6610   19.9520   23.2810 H   0  0  0  0  0  0  0  0  0  0  0  0
   21.2866   17.9909   22.3948 C   0  0  0  0  0  0  0  0  0  0  0  0
   22.2540   17.6322   22.0175 H   0  0  0  0  0  0  0  0  0  0  0  0
   20.7433   17.0911   22.7139 H   0  0  0  0  0  0  0  0  0  0  0  0
   20.5511   18.6627   21.2047 C   0  0  0  0  0  0  0  0  0  0  0  0
   20.5437   17.9389   20.3783 H   0  0  0  0  0  0  0  0  0  0  0  0
   21.1315   19.5208   20.8393 H   0  0  0  0  0  0  0  0  0  0  0  0
   19.0856   19.0842   21.4738 C   0  0  0  0  0  0  0  0  0  0  0  0
   18.5082   18.9470   20.5491 H   0  0  0  0  0  0  0  0  0  0  0  0
   18.6271   18.4184   22.2171 H   0  0  0  0  0  0  0  0  0  0  0  0
   18.9431   20.5613   21.9044 C   0  0  0  0  0  0  0  0  0  0  0  0
   19.3299   21.2333   21.1275 H   0  0  0  0  0  0  0  0  0  0  0  0
   17.8877   20.8124   22.0708 H   0  0  0  0  0  0  0  0  0  0  0  0
   19.4862   20.7708   22.8326 H   0  0  0  0  0  0  0  0  0  0  0  0
  1  2  1  0  0  0  0
  1  3  2  0  0  0  0
  1  4  1  0  0  0  0
  4  5  1  0  0  0  0
  4  6  1  0  0  0  0
  4  7  1  0  0  0  0
  7  8  1  0  0  0  0
  7  9  1  0  0  0  0
  7 10  1  0  0  0  0
 10 11  1  0  0  0  0
 10 12  1  0  0  0  0
 10 13  1  0  0  0  0
 13 14  1  0  0  0  0
 13 15  1  0  0  0  0
 13 16  1  0  0  0  0
 16 17  1  0  0  0  0
 16 18  1  0  0  0  0
 16 19  1  0  0  0  0
 19 20  1  0  0  0  0
 19 21  1  0  0  0  0
 19 22  1  0  0  0  0
 22 23  1  0  0  0  0
 22 24  1  0  0  0  0
 22 25  1  0  0  0  0
M  END
> <VM2 Rank>
168

> <Conf_Id>
247

> <Probability>
0.00

> <Sum Probability>
100.00

> <Delta G>
7.250

> <G>
-0.712

> <E>
-25.966

> <-TS>
25.254

> <U+W>
-46.534

> <U>
13.593

> <W>
-60.127

> <W(PB)>
-62.510

> <W(SA)>
2.383

> <Valence>
13.121

> <Coulomb>
-0.197

> <VdW>
0.669

> <VdW6>
-10.627

> <VdW12>
11.296

> <Bond>
0.238

> <Angle>
3.709

> <Pdih>
9.174

> <Idih>
0.000

> <Tether>
0.000

$$$$
VeraChem MOL file


 25 24  0  0  0  0  0  0  0  0999 V2000     
   20.4954   19.6779   27.0198 C   0  0  0  0  0  0  0  0  0  0  0  0
   21.3630   20.5267   26.9613 O   0  5  0  0  0  0  0  0  0  0  0  0
   20.4332   18.8379   27.8957 O   0  0  0  0  0  0  0  0  0  0  0  0
   19.4354   19.6548   25.9244 C   0  0  0  0  0  0  0  0  0  0  0  0
   19.2850   20.6830   25.5740 H   0  0  0  0  0  0  0  0  0  0  0  0
   18.4908   19.3224   26.3712 H   0  0  0  0  0  0  0  0  0  0  0  0
   19.8178   18.7378   24.7368 C   0  0  0  0  0  0  0  0  0  0  0  0
   20.7758   19.0713   24.3205 H   0  0  0  0  0  0  0  0  0  0  0  0
   19.9764   17.7153   25.1061 H   0  0  0  0  0  0  0  0  0  0  0  0
   18.7237   18.7289   23.6432 C   0  0  0  0  0  0  0  0  0  0  0  0
   18.4904   19.7513   23.3176 H   0  0  0  0  0  0  0  0  0  0  0  0
   17.8004   18.3354   24.0900 H   0  0  0  0  0  0  0  0  0  0  0  0
   19.0887   17.8517   22.4201 C   0  0  0  0  0  0  0  0  0  0  0  0
   19.7484   17.0281   22.7253 H   0  0  0  0  0  0  0  0  0  0  0  0
   18.1658   17.3734   22.0646 H   0  0  0  0  0  0  0  0  0  0  0  0
   19.7060   18.6092   21.2145 C   0  0  0  0  0  0  0  0  0  0  0  0
   19.0138   19.3868   20.8638 H   0  0  0  0  0  0  0  0  0  0  0  0
   19.7856   17.8911   20.3870 H   0  0  0  0  0  0  0  0  0  0  0  0
   21.1125   19.2126   21.4504 C   0  0  0  0  0  0  0  0  0  0  0  0
   21.6682   18.6111   22.1821 H   0  0  0  0  0  0  0  0  0  0  0  0
   21.6811   19.1479   20.5125 H   0  0  0  0  0  0  0  0  0  0  0  0
   21.0774   20.6965   21.8798 C   0  0  0  0  0  0  0  0  0  0  0  0
   20.5336   20.8373   22.8204 H   0  0  0  0  0  0  0  0  0  0  0  0
   22.0963   21.0789   22.0223 H   0  0  0  0  0  0  0  0  0  0  0  0
   20.5913   21.3132   21.1128 H   0  0  0  0  0  0  0  0  0  0  0  0
  1  2  1  0  0  0  0
  1  3  2  0  0  0  0
  1  4  1  0  0  0  0
  4  5  1  0  0  0  0
  4  6  1  0  0  0  0
  4  7  1  0  0  0  0
  7  8  1  0  0  0  0
  7  9  1  0  0  0  0
  7 10  1  0  0  0  0
 10 11  1  0  0  0  0
 10 12  1  0  0  0  0
 10 13  1  0  0  0  0
 13 14  1  0  0  0  0
 13 15  1  0  0  0  0
 13 16  1  0  0  0  0
 16 17  1  0  0  0  0
 16 18  1  0  0  0  0
 16 19  1  0  0  0  0
 19 20  1  0  0  0  0
 19 21  1  0  0  0  0
 19 22  1  0  0  0  0
 22 23  1  0  0  0  0
 22 24  1  0  0  0  0
 22 25  1  0  0  0  0
M  END
> <VM2 Rank>
169

> <Conf_Id>
1104

> <Probability>
0.00

> <Sum Probability>
100.00

> <Delta G>
7.253

> <G>
-0.709

> <E>
-25.964

> <-TS>
25.254

> <U+W>
-46.531

> <U>
13.593

> <W>
-60.124

> <W(PB)>
-62.518

> <W(SA)>
2.394

> <Valence>
13.121

> <Coulomb>
-0.197

> <VdW>
0.669

> <VdW6>
-10.627

> <VdW12>
11.296

> <Bond>
0.238

> <Angle>
3.709

> <Pdih>
9.174

> <Idih>
0.000

> <Tether>
0.000

$$$$
VeraChem MOL file


 25 24  0  0  0  0  0  0  0  0999 V2000     
   19.9211   19.6953   27.0873 C   0  0  0  0  0  0  0  0  0  0  0  0
   20.9444   20.0347   27.6480 O   0  5  0  0  0  0  0  0  0  0  0  0
   18.8811   19.4590   27.6699 O   0  0  0  0  0  0  0  0  0  0  0  0
   19.9493   19.5351   25.5717 C   0  0  0  0  0  0  0  0  0  0  0  0
   20.6500   20.2764   25.1711 H   0  0  0  0  0  0  0  0  0  0  0  0
   18.9533   19.7810   25.1849 H   0  0  0  0  0  0  0  0  0  0  0  0
   20.3587   18.1082   25.1261 C   0  0  0  0  0  0  0  0  0  0  0  0
   21.3749   17.8938   25.4848 H   0  0  0  0  0  0  0  0  0  0  0  0
   19.6985   17.3821   25.6205 H   0  0  0  0  0  0  0  0  0  0  0  0
   20.2882   17.8779   23.5955 C   0  0  0  0  0  0  0  0  0  0  0  0
   19.2566   18.0151   23.2479 H   0  0  0  0  0  0  0  0  0  0  0  0
   20.5323   16.8241   23.4046 H   0  0  0  0  0  0  0  0  0  0  0  0
   21.2656   18.7581   22.7724 C   0  0  0  0  0  0  0  0  0  0  0  0
   22.1430   18.9919   23.3907 H   0  0  0  0  0  0  0  0  0  0  0  0
   21.6525   18.1761   21.9249 H   0  0  0  0  0  0  0  0  0  0  0  0
   20.6474   20.0772   22.2370 C   0  0  0  0  0  0  0  0  0  0  0  0
   21.4292   20.8487   22.2431 H   0  0  0  0  0  0  0  0  0  0  0  0
   19.8616   20.4400   22.9110 H   0  0  0  0  0  0  0  0  0  0  0  0
   20.0921   19.9814   20.7945 C   0  0  0  0  0  0  0  0  0  0  0  0
   19.7696   20.9822   20.4758 H   0  0  0  0  0  0  0  0  0  0  0  0
   20.8976   19.6851   20.1085 H   0  0  0  0  0  0  0  0  0  0  0  0
   18.9049   19.0072   20.6435 C   0  0  0  0  0  0  0  0  0  0  0  0
   18.0944   19.2651   21.3373 H   0  0  0  0  0  0  0  0  0  0  0  0
   18.5025   19.0468   19.6231 H   0  0  0  0  0  0  0  0  0  0  0  0
   19.2136   17.9726   20.8393 H   0  0  0  0  0  0  0  0  0  0  0  0
  1  2  1  0  0  0  0
  1  3  2  0  0  0  0
  1  4  1  0  0  0  0
  4  5  1  0  0  0  0
  4  6  1  0  0  0  0
  4  7  1  0  0  0  0
  7  8  1  0  0  0  0
  7  9  1  0  0  0  0
  7 10  1  0  0  0  0
 10 11  1  0  0  0  0
 10 12  1  0  0  0  0
 10 13  1  0  0  0  0
 13 14  1  0  0  0  0
 13 15  1  0  0  0  0
 13 16  1  0  0  0  0
 16 17  1  0  0  0  0
 16 18  1  0  0  0  0
 16 19  1  0  0  0  0
 19 20  1  0  0  0  0
 19 21  1  0  0  0  0
 19 22  1  0  0  0  0
 22 23  1  0  0  0  0
 22 24  1  0  0  0  0
 22 25  1  0  0  0  0
M  END
> <VM2 Rank>
170

> <Conf_Id>
6

> <Probability>
0.00

> <Sum Probability>
100.00

> <Delta G>
7.264

> <G>
-0.698

> <E>
-25.926

> <-TS>
25.227

> <U+W>
-46.493

> <U>
13.064

> <W>
-59.557

> <W(PB)>
-61.926

> <W(SA)>
2.369

> <Valence>
13.064

> <Coulomb>
-1.007

> <VdW>
1.008

> <VdW6>
-10.968

> <VdW12>
11.976

> <Bond>
0.280

> <Angle>
3.439

> <Pdih>
9.344

> <Idih>
0.001

> <Tether>
0.000

$$$$
VeraChem MOL file


 25 24  0  0  0  0  0  0  0  0999 V2000     
   20.4924   19.0556   26.5285 C   0  0  0  0  0  0  0  0  0  0  0  0
   21.6440   19.4423   26.4838 O   0  5  0  0  0  0  0  0  0  0  0  0
   20.1756   17.9280   26.8540 O   0  0  0  0  0  0  0  0  0  0  0  0
   19.3811   20.0698   26.2669 C   0  0  0  0  0  0  0  0  0  0  0  0
   19.5248   20.8784   26.9928 H   0  0  0  0  0  0  0  0  0  0  0  0
   18.4143   19.6077   26.5002 H   0  0  0  0  0  0  0  0  0  0  0  0
   19.3591   20.6753   24.8351 C   0  0  0  0  0  0  0  0  0  0  0  0
   18.8061   21.6231   24.8802 H   0  0  0  0  0  0  0  0  0  0  0  0
   20.3774   20.9413   24.5220 H   0  0  0  0  0  0  0  0  0  0  0  0
   18.6717   19.7858   23.7666 C   0  0  0  0  0  0  0  0  0  0  0  0
   18.5495   20.3725   22.8467 H   0  0  0  0  0  0  0  0  0  0  0  0
   17.6528   19.5503   24.1021 H   0  0  0  0  0  0  0  0  0  0  0  0
   19.3998   18.4609   23.4222 C   0  0  0  0  0  0  0  0  0  0  0  0
   19.4028   17.8077   24.3037 H   0  0  0  0  0  0  0  0  0  0  0  0
   18.8109   17.9230   22.6679 H   0  0  0  0  0  0  0  0  0  0  0  0
   20.8557   18.6196   22.9097 C   0  0  0  0  0  0  0  0  0  0  0  0
   21.2597   17.6222   22.6902 H   0  0  0  0  0  0  0  0  0  0  0  0
   21.4828   19.0208   23.7166 H   0  0  0  0  0  0  0  0  0  0  0  0
   21.0201   19.5128   21.6554 C   0  0  0  0  0  0  0  0  0  0  0  0
   20.7006   20.5393   21.8786 H   0  0  0  0  0  0  0  0  0  0  0  0
   22.0886   19.5742   21.4074 H   0  0  0  0  0  0  0  0  0  0  0  0
   20.2535   18.9838   20.4239 C   0  0  0  0  0  0  0  0  0  0  0  0
   19.1691   19.0069   20.5895 H   0  0  0  0  0  0  0  0  0  0  0  0
   20.4691   19.6013   19.5425 H   0  0  0  0  0  0  0  0  0  0  0  0
   20.5452   17.9509   20.1937 H   0  0  0  0  0  0  0  0  0  0  0  0
  1  2  1  0  0  0  0
  1  3  2  0  0  0  0
  1  4  1  0  0  0  0
  4  5  1  0  0  0  0
  4  6  1  0  0  0  0
  4  7  1  0  0  0  0
  7  8  1  0  0  0  0
  7  9  1  0  0  0  0
  7 10  1  0  0  0  0
 10 11  1  0  0  0  0
 10 12  1  0  0  0  0
 10 13  1  0  0  0  0
 13 14  1  0  0  0  0
 13 15  1  0  0  0  0
 13 16  1  0  0  0  0
 16 17  1  0  0  0  0
 16 18  1  0  0  0  0
 16 19  1  0  0  0  0
 19 20  1  0  0  0  0
 19 21  1  0  0  0  0
 19 22  1  0  0  0  0
 22 23  1  0  0  0  0
 22 24  1  0  0  0  0
 22 25  1  0  0  0  0
M  END
> <VM2 Rank>
171

> <Conf_Id>
447

> <Probability>
0.00

> <Sum Probability>
100.00

> <Delta G>
7.279

> <G>
-0.683

> <E>
-26.968

> <-TS>
26.285

> <U+W>
-47.536

> <U>
13.324

> <W>
-60.860

> <W(PB)>
-63.185

> <W(SA)>
2.325

> <Valence>
10.989

> <Coulomb>
2.085

> <VdW>
0.250

> <VdW6>
-13.144

> <VdW12>
13.394

> <Bond>
0.321

> <Angle>
4.360

> <Pdih>
6.292

> <Idih>
0.016

> <Tether>
0.000

$$$$
VeraChem MOL file


 25 24  0  0  0  0  0  0  0  0999 V2000     
   20.1818   18.8955   27.1063 C   0  0  0  0  0  0  0  0  0  0  0  0
   21.2009   19.2480   27.6667 O   0  5  0  0  0  0  0  0  0  0  0  0
   19.1943   18.4984   27.6927 O   0  0  0  0  0  0  0  0  0  0  0  0
   20.1315   18.9764   25.5849 C   0  0  0  0  0  0  0  0  0  0  0  0
   19.4770   18.1746   25.2230 H   0  0  0  0  0  0  0  0  0  0  0  0
   21.1399   18.7737   25.2068 H   0  0  0  0  0  0  0  0  0  0  0  0
   19.6280   20.3499   25.0730 C   0  0  0  0  0  0  0  0  0  0  0  0
   18.6600   20.5682   25.5449 H   0  0  0  0  0  0  0  0  0  0  0  0
   20.3178   21.1369   25.4078 H   0  0  0  0  0  0  0  0  0  0  0  0
   19.4568   20.4286   23.5350 C   0  0  0  0  0  0  0  0  0  0  0  0
   19.0359   21.4146   23.2957 H   0  0  0  0  0  0  0  0  0  0  0  0
   18.7089   19.6953   23.2081 H   0  0  0  0  0  0  0  0  0  0  0  0
   20.7764   20.2587   22.7368 C   0  0  0  0  0  0  0  0  0  0  0  0
   20.7581   20.9199   21.8598 H   0  0  0  0  0  0  0  0  0  0  0  0
   21.6144   20.6134   23.3522 H   0  0  0  0  0  0  0  0  0  0  0  0
   21.0614   18.8072   22.2672 C   0  0  0  0  0  0  0  0  0  0  0  0
   20.6307   18.0804   22.9670 H   0  0  0  0  0  0  0  0  0  0  0  0
   22.1474   18.6452   22.2954 H   0  0  0  0  0  0  0  0  0  0  0  0
   20.5765   18.4955   20.8297 C   0  0  0  0  0  0  0  0  0  0  0  0
   21.0624   19.1797   20.1205 H   0  0  0  0  0  0  0  0  0  0  0  0
   20.9099   17.4843   20.5588 H   0  0  0  0  0  0  0  0  0  0  0  0
   19.0455   18.5758   20.6537 C   0  0  0  0  0  0  0  0  0  0  0  0
   18.6828   19.6009   20.8008 H   0  0  0  0  0  0  0  0  0  0  0  0
   18.7579   18.2632   19.6417 H   0  0  0  0  0  0  0  0  0  0  0  0
   18.5328   17.9200   21.3692 H   0  0  0  0  0  0  0  0  0  0  0  0
  1  2  1  0  0  0  0
  1  3  2  0  0  0  0
  1  4  1  0  0  0  0
  4  5  1  0  0  0  0
  4  6  1  0  0  0  0
  4  7  1  0  0  0  0
  7  8  1  0  0  0  0
  7  9  1  0  0  0  0
  7 10  1  0  0  0  0
 10 11  1  0  0  0  0
 10 12  1  0  0  0  0
 10 13  1  0  0  0  0
 13 14  1  0  0  0  0
 13 15  1  0  0  0  0
 13 16  1  0  0  0  0
 16 17  1  0  0  0  0
 16 18  1  0  0  0  0
 16 19  1  0  0  0  0
 19 20  1  0  0  0  0
 19 21  1  0  0  0  0
 19 22  1  0  0  0  0
 22 23  1  0  0  0  0
 22 24  1  0  0  0  0
 22 25  1  0  0  0  0
M  END
> <VM2 Rank>
172

> <Conf_Id>
5

> <Probability>
0.00

> <Sum Probability>
100.00

> <Delta G>
7.289

> <G>
-0.673

> <E>
-25.900

> <-TS>
25.227

> <U+W>
-46.468

> <U>
13.064

> <W>
-59.532

> <W(PB)>
-61.933

> <W(SA)>
2.401

> <Valence>
13.064

> <Coulomb>
-1.008

> <VdW>
1.008

> <VdW6>
-10.968

> <VdW12>
11.977

> <Bond>
0.280

> <Angle>
3.438

> <Pdih>
9.345

> <Idih>
0.001

> <Tether>
0.000

$$$$
VeraChem MOL file


 25 24  0  0  0  0  0  0  0  0999 V2000     
   19.8366   19.0146   26.5361 C   0  0  0  0  0  0  0  0  0  0  0  0
   20.2989   17.9358   26.8525 O   0  5  0  0  0  0  0  0  0  0  0  0
   18.6450   19.2548   26.5185 O   0  0  0  0  0  0  0  0  0  0  0  0
   20.8067   20.1590   26.2504 C   0  0  0  0  0  0  0  0  0  0  0  0
   21.8286   19.8212   26.4607 H   0  0  0  0  0  0  0  0  0  0  0  0
   20.5801   20.9444   26.9806 H   0  0  0  0  0  0  0  0  0  0  0  0
   20.7201   20.7605   24.8194 C   0  0  0  0  0  0  0  0  0  0  0  0
   19.6696   20.8970   24.5302 H   0  0  0  0  0  0  0  0  0  0  0  0
   21.1516   21.7698   24.8532 H   0  0  0  0  0  0  0  0  0  0  0  0
   21.4882   19.9620   23.7340 C   0  0  0  0  0  0  0  0  0  0  0  0
   22.5360   19.8559   24.0457 H   0  0  0  0  0  0  0  0  0  0  0  0
   21.5152   20.5581   22.8125 H   0  0  0  0  0  0  0  0  0  0  0  0
   20.9233   18.5562   23.4046 C   0  0  0  0  0  0  0  0  0  0  0  0
   21.5571   18.0949   22.6362 H   0  0  0  0  0  0  0  0  0  0  0  0
   21.0219   17.9090   24.2850 H   0  0  0  0  0  0  0  0  0  0  0  0
   19.4476   18.5315   22.9260 C   0  0  0  0  0  0  0  0  0  0  0  0
   18.7940   18.8525   23.7477 H   0  0  0  0  0  0  0  0  0  0  0  0
   19.1661   17.4912   22.7144 H   0  0  0  0  0  0  0  0  0  0  0  0
   19.1443   19.3954   21.6770 C   0  0  0  0  0  0  0  0  0  0  0  0
   18.0711   19.3228   21.4538 H   0  0  0  0  0  0  0  0  0  0  0  0
   19.3384   20.4540   21.8943 H   0  0  0  0  0  0  0  0  0  0  0  0
   19.9423   18.9642   20.4275 C   0  0  0  0  0  0  0  0  0  0  0  0
   19.7764   17.9027   20.2026 H   0  0  0  0  0  0  0  0  0  0  0  0
   19.6312   19.5487   19.5521 H   0  0  0  0  0  0  0  0  0  0  0  0
   21.0189   19.1226   20.5681 H   0  0  0  0  0  0  0  0  0  0  0  0
  1  2  1  0  0  0  0
  1  3  2  0  0  0  0
  1  4  1  0  0  0  0
  4  5  1  0  0  0  0
  4  6  1  0  0  0  0
  4  7  1  0  0  0  0
  7  8  1  0  0  0  0
  7  9  1  0  0  0  0
  7 10  1  0  0  0  0
 10 11  1  0  0  0  0
 10 12  1  0  0  0  0
 10 13  1  0  0  0  0
 13 14  1  0  0  0  0
 13 15  1  0  0  0  0
 13 16  1  0  0  0  0
 16 17  1  0  0  0  0
 16 18  1  0  0  0  0
 16 19  1  0  0  0  0
 19 20  1  0  0  0  0
 19 21  1  0  0  0  0
 19 22  1  0  0  0  0
 22 23  1  0  0  0  0
 22 24  1  0  0  0  0
 22 25  1  0  0  0  0
M  END
> <VM2 Rank>
173

> <Conf_Id>
87

> <Probability>
0.00

> <Sum Probability>
100.00

> <Delta G>
7.327

> <G>
-0.635

> <E>
-26.920

> <-TS>
26.285

> <U+W>
-47.488

> <U>
13.324

> <W>
-60.812

> <W(PB)>
-63.140

> <W(SA)>
2.328

> <Valence>
10.989

> <Coulomb>
2.085

> <VdW>
0.250

> <VdW6>
-13.143

> <VdW12>
13.393

> <Bond>
0.321

> <Angle>
4.360

> <Pdih>
6.292

> <Idih>
0.016

> <Tether>
0.000

$$$$
VeraChem MOL file


 25 24  0  0  0  0  0  0  0  0999 V2000     
   20.8372   19.3974   26.5815 C   0  0  0  0  0  0  0  0  0  0  0  0
   21.6954   20.1843   26.2343 O   0  5  0  0  0  0  0  0  0  0  0  0
   20.5460   19.1875   27.7426 O   0  0  0  0  0  0  0  0  0  0  0  0
   20.0658   18.6488   25.5007 C   0  0  0  0  0  0  0  0  0  0  0  0
   19.7661   17.6766   25.9094 H   0  0  0  0  0  0  0  0  0  0  0  0
   20.7563   18.4472   24.6763 H   0  0  0  0  0  0  0  0  0  0  0  0
   18.8163   19.4263   25.0090 C   0  0  0  0  0  0  0  0  0  0  0  0
   18.1526   19.5733   25.8723 H   0  0  0  0  0  0  0  0  0  0  0  0
   19.0981   20.4324   24.6705 H   0  0  0  0  0  0  0  0  0  0  0  0
   18.0262   18.6880   23.9000 C   0  0  0  0  0  0  0  0  0  0  0  0
   16.9601   18.9103   24.0450 H   0  0  0  0  0  0  0  0  0  0  0  0
   18.1201   17.6007   24.0260 H   0  0  0  0  0  0  0  0  0  0  0  0
   18.3835   19.0882   22.4440 C   0  0  0  0  0  0  0  0  0  0  0  0
   17.6608   18.5893   21.7839 H   0  0  0  0  0  0  0  0  0  0  0  0
   18.2203   20.1648   22.2984 H   0  0  0  0  0  0  0  0  0  0  0  0
   19.8044   18.6926   21.9707 C   0  0  0  0  0  0  0  0  0  0  0  0
   19.7507   18.4136   20.9095 H   0  0  0  0  0  0  0  0  0  0  0  0
   20.1432   17.7935   22.5018 H   0  0  0  0  0  0  0  0  0  0  0  0
   20.8378   19.8345   22.1103 C   0  0  0  0  0  0  0  0  0  0  0  0
   20.5173   20.6953   21.5077 H   0  0  0  0  0  0  0  0  0  0  0  0
   20.8921   20.1835   23.1487 H   0  0  0  0  0  0  0  0  0  0  0  0
   22.2404   19.3863   21.6529 C   0  0  0  0  0  0  0  0  0  0  0  0
   22.9598   20.2098   21.7499 H   0  0  0  0  0  0  0  0  0  0  0  0
   22.6016   18.5480   22.2630 H   0  0  0  0  0  0  0  0  0  0  0  0
   22.2288   19.0673   20.6026 H   0  0  0  0  0  0  0  0  0  0  0  0
  1  2  1  0  0  0  0
  1  3  2  0  0  0  0
  1  4  1  0  0  0  0
  4  5  1  0  0  0  0
  4  6  1  0  0  0  0
  4  7  1  0  0  0  0
  7  8  1  0  0  0  0
  7  9  1  0  0  0  0
  7 10  1  0  0  0  0
 10 11  1  0  0  0  0
 10 12  1  0  0  0  0
 10 13  1  0  0  0  0
 13 14  1  0  0  0  0
 13 15  1  0  0  0  0
 13 16  1  0  0  0  0
 16 17  1  0  0  0  0
 16 18  1  0  0  0  0
 16 19  1  0  0  0  0
 19 20  1  0  0  0  0
 19 21  1  0  0  0  0
 19 22  1  0  0  0  0
 22 23  1  0  0  0  0
 22 24  1  0  0  0  0
 22 25  1  0  0  0  0
M  END
> <VM2 Rank>
174

> <Conf_Id>
537

> <Probability>
0.00

> <Sum Probability>
100.00

> <Delta G>
7.439

> <G>
-0.524

> <E>
-25.860

> <-TS>
25.336

> <U+W>
-46.427

> <U>
13.989

> <W>
-60.416

> <W(PB)>
-62.802

> <W(SA)>
2.385

> <Valence>
13.108

> <Coulomb>
0.471

> <VdW>
0.410

> <VdW6>
-11.098

> <VdW12>
11.508

> <Bond>
0.254

> <Angle>
3.732

> <Pdih>
9.121

> <Idih>
0.001

> <Tether>
0.000

$$$$
VeraChem MOL file


 25 24  0  0  0  0  0  0  0  0999 V2000     
   20.5221   19.8697   26.2462 C   0  0  0  0  0  0  0  0  0  0  0  0
   21.4126   20.4825   25.6912 O   0  5  0  0  0  0  0  0  0  0  0  0
   19.7057   20.3927   26.9798 O   0  0  0  0  0  0  0  0  0  0  0  0
   20.4675   18.3535   26.0661 C   0  0  0  0  0  0  0  0  0  0  0  0
   20.7037   17.9090   27.0396 H   0  0  0  0  0  0  0  0  0  0  0  0
   21.2672   18.0459   25.3834 H   0  0  0  0  0  0  0  0  0  0  0  0
   19.0972   17.8107   25.5774 C   0  0  0  0  0  0  0  0  0  0  0  0
   19.1203   16.7127   25.5892 H   0  0  0  0  0  0  0  0  0  0  0  0
   18.3255   18.1051   26.3021 H   0  0  0  0  0  0  0  0  0  0  0  0
   18.6666   18.2957   24.1697 C   0  0  0  0  0  0  0  0  0  0  0  0
   18.6092   19.3913   24.1531 H   0  0  0  0  0  0  0  0  0  0  0  0
   17.6403   17.9432   23.9996 H   0  0  0  0  0  0  0  0  0  0  0  0
   19.5527   17.7627   23.0120 C   0  0  0  0  0  0  0  0  0  0  0  0
   20.0355   16.8259   23.3214 H   0  0  0  0  0  0  0  0  0  0  0  0
   18.9075   17.4954   22.1641 H   0  0  0  0  0  0  0  0  0  0  0  0
   20.6312   18.7543   22.5090 C   0  0  0  0  0  0  0  0  0  0  0  0
   21.3275   18.2091   21.8576 H   0  0  0  0  0  0  0  0  0  0  0  0
   21.2264   19.1296   23.3502 H   0  0  0  0  0  0  0  0  0  0  0  0
   20.0430   19.9450   21.7175 C   0  0  0  0  0  0  0  0  0  0  0  0
   19.4397   19.5711   20.8789 H   0  0  0  0  0  0  0  0  0  0  0  0
   19.3714   20.5322   22.3569 H   0  0  0  0  0  0  0  0  0  0  0  0
   21.1544   20.8672   21.1771 C   0  0  0  0  0  0  0  0  0  0  0  0
   20.7225   21.7079   20.6189 H   0  0  0  0  0  0  0  0  0  0  0  0
   21.7544   21.2785   21.9997 H   0  0  0  0  0  0  0  0  0  0  0  0
   21.8259   20.3206   20.5022 H   0  0  0  0  0  0  0  0  0  0  0  0
  1  2  1  0  0  0  0
  1  3  2  0  0  0  0
  1  4  1  0  0  0  0
  4  5  1  0  0  0  0
  4  6  1  0  0  0  0
  4  7  1  0  0  0  0
  7  8  1  0  0  0  0
  7  9  1  0  0  0  0
  7 10  1  0  0  0  0
 10 11  1  0  0  0  0
 10 12  1  0  0  0  0
 10 13  1  0  0  0  0
 13 14  1  0  0  0  0
 13 15  1  0  0  0  0
 13 16  1  0  0  0  0
 16 17  1  0  0  0  0
 16 18  1  0  0  0  0
 16 19  1  0  0  0  0
 19 20  1  0  0  0  0
 19 21  1  0  0  0  0
 19 22  1  0  0  0  0
 22 23  1  0  0  0  0
 22 24  1  0  0  0  0
 22 25  1  0  0  0  0
M  END
> <VM2 Rank>
175

> <Conf_Id>
1115

> <Probability>
0.00

> <Sum Probability>
100.00

> <Delta G>
7.540

> <G>
-0.422

> <E>
-25.624

> <-TS>
25.202

> <U+W>
-46.192

> <U>
15.107

> <W>
-61.299

> <W(PB)>
-63.654

> <W(SA)>
2.355

> <Valence>
11.932

> <Coulomb>
2.763

> <VdW>
0.412

> <VdW6>
-11.607

> <VdW12>
12.019

> <Bond>
0.273

> <Angle>
3.596

> <Pdih>
8.057

> <Idih>
0.006

> <Tether>
0.000

$$$$
VeraChem MOL file


 25 24  0  0  0  0  0  0  0  0999 V2000     
   19.8777   19.5679   26.7342 C   0  0  0  0  0  0  0  0  0  0  0  0
   20.8738   20.0182   27.2658 O   0  5  0  0  0  0  0  0  0  0  0  0
   18.8340   20.1830   26.6357 O   0  0  0  0  0  0  0  0  0  0  0  0
   19.9164   18.1290   26.2230 C   0  0  0  0  0  0  0  0  0  0  0  0
   18.9286   17.8655   25.8261 H   0  0  0  0  0  0  0  0  0  0  0  0
   20.0818   17.4937   27.1008 H   0  0  0  0  0  0  0  0  0  0  0  0
   21.0175   17.8301   25.1670 C   0  0  0  0  0  0  0  0  0  0  0  0
   21.9721   18.2711   25.4863 H   0  0  0  0  0  0  0  0  0  0  0  0
   21.1796   16.7441   25.1431 H   0  0  0  0  0  0  0  0  0  0  0  0
   20.6755   18.2883   23.7275 C   0  0  0  0  0  0  0  0  0  0  0  0
   19.7267   17.8306   23.4192 H   0  0  0  0  0  0  0  0  0  0  0  0
   21.4482   17.9003   23.0500 H   0  0  0  0  0  0  0  0  0  0  0  0
   20.5913   19.8231   23.5604 C   0  0  0  0  0  0  0  0  0  0  0  0
   19.6965   20.2027   24.0702 H   0  0  0  0  0  0  0  0  0  0  0  0
   21.4530   20.2850   24.0615 H   0  0  0  0  0  0  0  0  0  0  0  0
   20.5692   20.3012   22.0866 C   0  0  0  0  0  0  0  0  0  0  0  0
   21.4928   19.9966   21.5757 H   0  0  0  0  0  0  0  0  0  0  0  0
   20.5830   21.3996   22.0977 H   0  0  0  0  0  0  0  0  0  0  0  0
   19.3305   19.8454   21.2753 C   0  0  0  0  0  0  0  0  0  0  0  0
   18.4628   19.7289   21.9394 H   0  0  0  0  0  0  0  0  0  0  0  0
   19.0664   20.6407   20.5646 H   0  0  0  0  0  0  0  0  0  0  0  0
   19.5670   18.5478   20.4706 C   0  0  0  0  0  0  0  0  0  0  0  0
   20.3995   18.6715   19.7658 H   0  0  0  0  0  0  0  0  0  0  0  0
   19.7986   17.6986   21.1229 H   0  0  0  0  0  0  0  0  0  0  0  0
   18.6721   18.2883   19.8903 H   0  0  0  0  0  0  0  0  0  0  0  0
  1  2  1  0  0  0  0
  1  3  2  0  0  0  0
  1  4  1  0  0  0  0
  4  5  1  0  0  0  0
  4  6  1  0  0  0  0
  4  7  1  0  0  0  0
  7  8  1  0  0  0  0
  7  9  1  0  0  0  0
  7 10  1  0  0  0  0
 10 11  1  0  0  0  0
 10 12  1  0  0  0  0
 10 13  1  0  0  0  0
 13 14  1  0  0  0  0
 13 15  1  0  0  0  0
 13 16  1  0  0  0  0
 16 17  1  0  0  0  0
 16 18  1  0  0  0  0
 16 19  1  0  0  0  0
 19 20  1  0  0  0  0
 19 21  1  0  0  0  0
 19 22  1  0  0  0  0
 22 23  1  0  0  0  0
 22 24  1  0  0  0  0
 22 25  1  0  0  0  0
M  END
> <VM2 Rank>
176

> <Conf_Id>
1050

> <Probability>
0.00

> <Sum Probability>
100.00

> <Delta G>
7.570

> <G>
-0.393

> <E>
-25.799

> <-TS>
25.407

> <U+W>
-46.367

> <U>
14.274

> <W>
-60.640

> <W(PB)>
-63.030

> <W(SA)>
2.389

> <Valence>
12.340

> <Coulomb>
1.174

> <VdW>
0.759

> <VdW6>
-11.600

> <VdW12>
12.360

> <Bond>
0.276

> <Angle>
3.898

> <Pdih>
8.159

> <Idih>
0.006

> <Tether>
0.000

$$$$
VeraChem MOL file


 25 24  0  0  0  0  0  0  0  0999 V2000     
   20.0820   19.0291   26.8806 C   0  0  0  0  0  0  0  0  0  0  0  0
   20.4739   17.8839   26.9909 O   0  5  0  0  0  0  0  0  0  0  0  0
   18.9943   19.4061   27.2712 O   0  0  0  0  0  0  0  0  0  0  0  0
   21.0328   20.0604   26.2764 C   0  0  0  0  0  0  0  0  0  0  0  0
   21.9835   19.5704   26.0339 H   0  0  0  0  0  0  0  0  0  0  0  0
   21.2472   20.7832   27.0720 H   0  0  0  0  0  0  0  0  0  0  0  0
   20.4865   20.8222   25.0359 C   0  0  0  0  0  0  0  0  0  0  0  0
   19.4411   21.1157   25.2045 H   0  0  0  0  0  0  0  0  0  0  0  0
   21.0510   21.7597   24.9416 H   0  0  0  0  0  0  0  0  0  0  0  0
   20.6159   20.0607   23.6929 C   0  0  0  0  0  0  0  0  0  0  0  0
   21.6584   19.7500   23.5407 H   0  0  0  0  0  0  0  0  0  0  0  0
   20.3787   20.7686   22.8891 H   0  0  0  0  0  0  0  0  0  0  0  0
   19.6805   18.8350   23.5688 C   0  0  0  0  0  0  0  0  0  0  0  0
   19.8991   18.1257   24.3756 H   0  0  0  0  0  0  0  0  0  0  0  0
   18.6387   19.1536   23.7098 H   0  0  0  0  0  0  0  0  0  0  0  0
   19.8101   18.0701   22.2272 C   0  0  0  0  0  0  0  0  0  0  0  0
   19.1464   17.1964   22.2804 H   0  0  0  0  0  0  0  0  0  0  0  0
   20.8262   17.6658   22.1225 H   0  0  0  0  0  0  0  0  0  0  0  0
   19.4262   18.8913   20.9708 C   0  0  0  0  0  0  0  0  0  0  0  0
   18.8878   18.2359   20.2724 H   0  0  0  0  0  0  0  0  0  0  0  0
   18.7245   19.6932   21.2387 H   0  0  0  0  0  0  0  0  0  0  0  0
   20.6508   19.4752   20.2313 C   0  0  0  0  0  0  0  0  0  0  0  0
   21.3159   18.6732   19.8854 H   0  0  0  0  0  0  0  0  0  0  0  0
   20.3311   20.0488   19.3518 H   0  0  0  0  0  0  0  0  0  0  0  0
   21.2348   20.1438   20.8742 H   0  0  0  0  0  0  0  0  0  0  0  0
  1  2  1  0  0  0  0
  1  3  2  0  0  0  0
  1  4  1  0  0  0  0
  4  5  1  0  0  0  0
  4  6  1  0  0  0  0
  4  7  1  0  0  0  0
  7  8  1  0  0  0  0
  7  9  1  0  0  0  0
  7 10  1  0  0  0  0
 10 11  1  0  0  0  0
 10 12  1  0  0  0  0
 10 13  1  0  0  0  0
 13 14  1  0  0  0  0
 13 15  1  0  0  0  0
 13 16  1  0  0  0  0
 16 17  1  0  0  0  0
 16 18  1  0  0  0  0
 16 19  1  0  0  0  0
 19 20  1  0  0  0  0
 19 21  1  0  0  0  0
 19 22  1  0  0  0  0
 22 23  1  0  0  0  0
 22 24  1  0  0  0  0
 22 25  1  0  0  0  0
M  END
> <VM2 Rank>
177

> <Conf_Id>
810

> <Probability>
0.00

> <Sum Probability>
100.00

> <Delta G>
7.652

> <G>
-0.311

> <E>
-25.489

> <-TS>
25.178

> <U+W>
-46.056

> <U>
14.422

> <W>
-60.479

> <W(PB)>
-62.877

> <W(SA)>
2.398

> <Valence>
12.698

> <Coulomb>
0.771

> <VdW>
0.953

> <VdW6>
-11.273

> <VdW12>
12.226

> <Bond>
0.285

> <Angle>
4.019

> <Pdih>
8.388

> <Idih>
0.006

> <Tether>
0.000

$$$$
VeraChem MOL file


 25 24  0  0  0  0  0  0  0  0999 V2000     
   20.5028   19.2112   26.7517 C   0  0  0  0  0  0  0  0  0  0  0  0
   21.3461   20.0816   26.8471 O   0  5  0  0  0  0  0  0  0  0  0  0
   20.7218   18.0377   26.9803 O   0  0  0  0  0  0  0  0  0  0  0  0
   19.0754   19.6209   26.3937 C   0  0  0  0  0  0  0  0  0  0  0  0
   18.7284   20.2703   27.2057 H   0  0  0  0  0  0  0  0  0  0  0  0
   18.4347   18.7309   26.4078 H   0  0  0  0  0  0  0  0  0  0  0  0
   18.9214   20.3742   25.0425 C   0  0  0  0  0  0  0  0  0  0  0  0
   17.9710   20.9243   25.0666 H   0  0  0  0  0  0  0  0  0  0  0  0
   19.7084   21.1351   24.9463 H   0  0  0  0  0  0  0  0  0  0  0  0
   18.9084   19.4647   23.7889 C   0  0  0  0  0  0  0  0  0  0  0  0
   18.6445   20.0834   22.9230 H   0  0  0  0  0  0  0  0  0  0  0  0
   18.1071   18.7194   23.8833 H   0  0  0  0  0  0  0  0  0  0  0  0
   20.2522   18.7443   23.5203 C   0  0  0  0  0  0  0  0  0  0  0  0
   21.0898   19.4505   23.6023 H   0  0  0  0  0  0  0  0  0  0  0  0
   20.4059   17.9921   24.3043 H   0  0  0  0  0  0  0  0  0  0  0  0
   20.2954   18.0229   22.1491 C   0  0  0  0  0  0  0  0  0  0  0  0
   19.2834   17.7235   21.8440 H   0  0  0  0  0  0  0  0  0  0  0  0
   20.8588   17.0880   22.2728 H   0  0  0  0  0  0  0  0  0  0  0  0
   20.9768   18.8314   21.0173 C   0  0  0  0  0  0  0  0  0  0  0  0
   22.0153   19.0538   21.2989 H   0  0  0  0  0  0  0  0  0  0  0  0
   21.0303   18.1997   20.1199 H   0  0  0  0  0  0  0  0  0  0  0  0
   20.2528   20.1450   20.6552 C   0  0  0  0  0  0  0  0  0  0  0  0
   20.7223   20.6139   19.7809 H   0  0  0  0  0  0  0  0  0  0  0  0
   19.1979   19.9597   20.4146 H   0  0  0  0  0  0  0  0  0  0  0  0
   20.3009   20.8642   21.4825 H   0  0  0  0  0  0  0  0  0  0  0  0
  1  2  1  0  0  0  0
  1  3  2  0  0  0  0
  1  4  1  0  0  0  0
  4  5  1  0  0  0  0
  4  6  1  0  0  0  0
  4  7  1  0  0  0  0
  7  8  1  0  0  0  0
  7  9  1  0  0  0  0
  7 10  1  0  0  0  0
 10 11  1  0  0  0  0
 10 12  1  0  0  0  0
 10 13  1  0  0  0  0
 13 14  1  0  0  0  0
 13 15  1  0  0  0  0
 13 16  1  0  0  0  0
 16 17  1  0  0  0  0
 16 18  1  0  0  0  0
 16 19  1  0  0  0  0
 19 20  1  0  0  0  0
 19 21  1  0  0  0  0
 19 22  1  0  0  0  0
 22 23  1  0  0  0  0
 22 24  1  0  0  0  0
 22 25  1  0  0  0  0
M  END
> <VM2 Rank>
178

> <Conf_Id>
805

> <Probability>
0.00

> <Sum Probability>
100.00

> <Delta G>
7.727

> <G>
-0.235

> <E>
-25.681

> <-TS>
25.446

> <U+W>
-46.249

> <U>
14.482

> <W>
-60.731

> <W(PB)>
-63.110

> <W(SA)>
2.379

> <Valence>
12.477

> <Coulomb>
1.221

> <VdW>
0.784

> <VdW6>
-11.566

> <VdW12>
12.350

> <Bond>
0.279

> <Angle>
3.852

> <Pdih>
8.338

> <Idih>
0.007

> <Tether>
0.000

$$$$
VeraChem MOL file


 25 24  0  0  0  0  0  0  0  0999 V2000     
   19.7463   19.6320   26.5291 C   0  0  0  0  0  0  0  0  0  0  0  0
   20.6533   20.1517   27.1498 O   0  5  0  0  0  0  0  0  0  0  0  0
   18.7163   20.2080   26.2388 O   0  0  0  0  0  0  0  0  0  0  0  0
   19.8763   18.1570   26.1544 C   0  0  0  0  0  0  0  0  0  0  0  0
   18.9596   17.8373   25.6440 H   0  0  0  0  0  0  0  0  0  0  0  0
   19.9196   17.6020   27.0986 H   0  0  0  0  0  0  0  0  0  0  0  0
   21.1227   17.7962   25.2979 C   0  0  0  0  0  0  0  0  0  0  0  0
   22.0139   18.2968   25.7014 H   0  0  0  0  0  0  0  0  0  0  0  0
   21.3068   16.7188   25.4062 H   0  0  0  0  0  0  0  0  0  0  0  0
   20.9793   18.0996   23.7858 C   0  0  0  0  0  0  0  0  0  0  0  0
   20.0870   17.5949   23.3974 H   0  0  0  0  0  0  0  0  0  0  0  0
   21.8352   17.6477   23.2664 H   0  0  0  0  0  0  0  0  0  0  0  0
   20.9391   19.6107   23.4483 C   0  0  0  0  0  0  0  0  0  0  0  0
   20.0547   20.0855   23.8907 H   0  0  0  0  0  0  0  0  0  0  0  0
   21.8111   20.0894   23.9143 H   0  0  0  0  0  0  0  0  0  0  0  0
   20.9733   19.9014   21.9257 C   0  0  0  0  0  0  0  0  0  0  0  0
   21.5241   19.1115   21.3974 H   0  0  0  0  0  0  0  0  0  0  0  0
   21.5503   20.8229   21.7682 H   0  0  0  0  0  0  0  0  0  0  0  0
   19.5834   20.1068   21.2738 C   0  0  0  0  0  0  0  0  0  0  0  0
   19.0792   20.9621   21.7446 H   0  0  0  0  0  0  0  0  0  0  0  0
   19.7300   20.3787   20.2194 H   0  0  0  0  0  0  0  0  0  0  0  0
   18.6629   18.8706   21.3424 C   0  0  0  0  0  0  0  0  0  0  0  0
   18.3473   18.6712   22.3740 H   0  0  0  0  0  0  0  0  0  0  0  0
   17.7562   19.0337   20.7458 H   0  0  0  0  0  0  0  0  0  0  0  0
   19.1701   17.9787   20.9524 H   0  0  0  0  0  0  0  0  0  0  0  0
  1  2  1  0  0  0  0
  1  3  2  0  0  0  0
  1  4  1  0  0  0  0
  4  5  1  0  0  0  0
  4  6  1  0  0  0  0
  4  7  1  0  0  0  0
  7  8  1  0  0  0  0
  7  9  1  0  0  0  0
  7 10  1  0  0  0  0
 10 11  1  0  0  0  0
 10 12  1  0  0  0  0
 10 13  1  0  0  0  0
 13 14  1  0  0  0  0
 13 15  1  0  0  0  0
 13 16  1  0  0  0  0
 16 17  1  0  0  0  0
 16 18  1  0  0  0  0
 16 19  1  0  0  0  0
 19 20  1  0  0  0  0
 19 21  1  0  0  0  0
 19 22  1  0  0  0  0
 22 23  1  0  0  0  0
 22 24  1  0  0  0  0
 22 25  1  0  0  0  0
M  END
> <VM2 Rank>
179

> <Conf_Id>
429

> <Probability>
0.00

> <Sum Probability>
100.00

> <Delta G>
7.742

> <G>
-0.221

> <E>
-25.442

> <-TS>
25.221

> <U+W>
-46.010

> <U>
15.042

> <W>
-61.051

> <W(PB)>
-63.402

> <W(SA)>
2.351

> <Valence>
12.413

> <Coulomb>
1.927

> <VdW>
0.702

> <VdW6>
-11.648

> <VdW12>
12.350

> <Bond>
0.287

> <Angle>
3.936

> <Pdih>
8.183

> <Idih>
0.007

> <Tether>
0.000

$$$$
VeraChem MOL file


 25 24  0  0  0  0  0  0  0  0999 V2000     
   20.5037   19.6803   26.5207 C   0  0  0  0  0  0  0  0  0  0  0  0
   21.4450   20.3827   26.2079 O   0  5  0  0  0  0  0  0  0  0  0  0
   19.5525   20.0808   27.1631 O   0  0  0  0  0  0  0  0  0  0  0  0
   20.5543   18.2003   26.1463 C   0  0  0  0  0  0  0  0  0  0  0  0
   20.6042   17.6454   27.0902 H   0  0  0  0  0  0  0  0  0  0  0  0
   21.4921   17.9997   25.6142 H   0  0  0  0  0  0  0  0  0  0  0  0
   19.3445   17.6826   25.3183 C   0  0  0  0  0  0  0  0  0  0  0  0
   19.3016   16.5907   25.4291 H   0  0  0  0  0  0  0  0  0  0  0  0
   18.4065   18.0662   25.7431 H   0  0  0  0  0  0  0  0  0  0  0  0
   19.4131   17.9997   23.8038 C   0  0  0  0  0  0  0  0  0  0  0  0
   18.6095   17.4423   23.3037 H   0  0  0  0  0  0  0  0  0  0  0  0
   20.3528   17.6117   23.3939 H   0  0  0  0  0  0  0  0  0  0  0  0
   19.2536   19.5033   23.4679 C   0  0  0  0  0  0  0  0  0  0  0  0
   18.3392   19.8684   23.9551 H   0  0  0  0  0  0  0  0  0  0  0  0
   20.0809   20.0869   23.8903 H   0  0  0  0  0  0  0  0  0  0  0  0
   19.1471   19.7854   21.9470 C   0  0  0  0  0  0  0  0  0  0  0  0
   18.4546   20.6261   21.8046 H   0  0  0  0  0  0  0  0  0  0  0  0
   18.6885   18.9314   21.4305 H   0  0  0  0  0  0  0  0  0  0  0  0
   20.4842   20.1643   21.2630 C   0  0  0  0  0  0  0  0  0  0  0  0
   20.2796   20.4141   20.2129 H   0  0  0  0  0  0  0  0  0  0  0  0
   20.8869   21.0771   21.7233 H   0  0  0  0  0  0  0  0  0  0  0  0
   21.5550   19.0546   21.3078 C   0  0  0  0  0  0  0  0  0  0  0  0
   21.9176   18.8981   22.3315 H   0  0  0  0  0  0  0  0  0  0  0  0
   21.1558   18.1052   20.9283 H   0  0  0  0  0  0  0  0  0  0  0  0
   22.4196   19.3304   20.6905 H   0  0  0  0  0  0  0  0  0  0  0  0
  1  2  1  0  0  0  0
  1  3  2  0  0  0  0
  1  4  1  0  0  0  0
  4  5  1  0  0  0  0
  4  6  1  0  0  0  0
  4  7  1  0  0  0  0
  7  8  1  0  0  0  0
  7  9  1  0  0  0  0
  7 10  1  0  0  0  0
 10 11  1  0  0  0  0
 10 12  1  0  0  0  0
 10 13  1  0  0  0  0
 13 14  1  0  0  0  0
 13 15  1  0  0  0  0
 13 16  1  0  0  0  0
 16 17  1  0  0  0  0
 16 18  1  0  0  0  0
 16 19  1  0  0  0  0
 19 20  1  0  0  0  0
 19 21  1  0  0  0  0
 19 22  1  0  0  0  0
 22 23  1  0  0  0  0
 22 24  1  0  0  0  0
 22 25  1  0  0  0  0
M  END
> <VM2 Rank>
180

> <Conf_Id>
114

> <Probability>
0.00

> <Sum Probability>
100.00

> <Delta G>
7.751

> <G>
-0.212

> <E>
-25.434

> <-TS>
25.222

> <U+W>
-46.001

> <U>
15.040

> <W>
-61.041

> <W(PB)>
-63.404

> <W(SA)>
2.363

> <Valence>
12.413

> <Coulomb>
1.924

> <VdW>
0.703

> <VdW6>
-11.648

> <VdW12>
12.351

> <Bond>
0.287

> <Angle>
3.936

> <Pdih>
8.183

> <Idih>
0.007

> <Tether>
0.000

$$$$
VeraChem MOL file


 25 24  0  0  0  0  0  0  0  0999 V2000     
   19.8119   19.1684   26.7595 C   0  0  0  0  0  0  0  0  0  0  0  0
   19.7452   17.9771   26.9915 O   0  5  0  0  0  0  0  0  0  0  0  0
   18.8697   19.9277   26.8754 O   0  0  0  0  0  0  0  0  0  0  0  0
   21.1690   19.7511   26.3696 C   0  0  0  0  0  0  0  0  0  0  0  0
   21.9151   18.9473   26.3678 H   0  0  0  0  0  0  0  0  0  0  0  0
   21.4515   20.4396   27.1743 H   0  0  0  0  0  0  0  0  0  0  0  0
   21.1977   20.5157   25.0162 C   0  0  0  0  0  0  0  0  0  0  0  0
   20.3206   21.1732   24.9391 H   0  0  0  0  0  0  0  0  0  0  0  0
   22.0730   21.1792   25.0194 H   0  0  0  0  0  0  0  0  0  0  0  0
   21.2945   19.6130   23.7614 C   0  0  0  0  0  0  0  0  0  0  0  0
   22.1840   18.9729   23.8363 H   0  0  0  0  0  0  0  0  0  0  0  0
   21.4597   20.2583   22.8905 H   0  0  0  0  0  0  0  0  0  0  0  0
   20.0445   18.7312   23.5228 C   0  0  0  0  0  0  0  0  0  0  0  0
   20.0034   17.9668   24.3090 H   0  0  0  0  0  0  0  0  0  0  0  0
   19.1280   19.3282   23.6252 H   0  0  0  0  0  0  0  0  0  0  0  0
   20.0595   18.0082   22.1518 C   0  0  0  0  0  0  0  0  0  0  0  0
   19.6193   17.0108   22.2871 H   0  0  0  0  0  0  0  0  0  0  0  0
   21.0935   17.8362   21.8230 H   0  0  0  0  0  0  0  0  0  0  0  0
   19.2570   18.7245   21.0373 C   0  0  0  0  0  0  0  0  0  0  0  0
   19.2615   18.0898   20.1405 H   0  0  0  0  0  0  0  0  0  0  0  0
   18.2058   18.8166   21.3432 H   0  0  0  0  0  0  0  0  0  0  0  0
   19.8040   20.1172   20.6606 C   0  0  0  0  0  0  0  0  0  0  0  0
   19.6863   20.8259   21.4899 H   0  0  0  0  0  0  0  0  0  0  0  0
   20.8678   20.0638   20.3953 H   0  0  0  0  0  0  0  0  0  0  0  0
   19.2598   20.5231   19.7982 H   0  0  0  0  0  0  0  0  0  0  0  0
  1  2  1  0  0  0  0
  1  3  2  0  0  0  0
  1  4  1  0  0  0  0
  4  5  1  0  0  0  0
  4  6  1  0  0  0  0
  4  7  1  0  0  0  0
  7  8  1  0  0  0  0
  7  9  1  0  0  0  0
  7 10  1  0  0  0  0
 10 11  1  0  0  0  0
 10 12  1  0  0  0  0
 10 13  1  0  0  0  0
 13 14  1  0  0  0  0
 13 15  1  0  0  0  0
 13 16  1  0  0  0  0
 16 17  1  0  0  0  0
 16 18  1  0  0  0  0
 16 19  1  0  0  0  0
 19 20  1  0  0  0  0
 19 21  1  0  0  0  0
 19 22  1  0  0  0  0
 22 23  1  0  0  0  0
 22 24  1  0  0  0  0
 22 25  1  0  0  0  0
M  END
> <VM2 Rank>
181

> <Conf_Id>
84

> <Probability>
0.00

> <Sum Probability>
100.00

> <Delta G>
7.752

> <G>
-0.210

> <E>
-25.656

> <-TS>
25.446

> <U+W>
-46.224

> <U>
14.482

> <W>
-60.706

> <W(PB)>
-63.083

> <W(SA)>
2.377

> <Valence>
12.477

> <Coulomb>
1.221

> <VdW>
0.784

> <VdW6>
-11.566

> <VdW12>
12.351

> <Bond>
0.279

> <Angle>
3.852

> <Pdih>
8.339

> <Idih>
0.007

> <Tether>
0.000

$$$$
VeraChem MOL file


 25 24  0  0  0  0  0  0  0  0999 V2000     
   20.2264   18.5119   26.0149 C   0  0  0  0  0  0  0  0  0  0  0  0
   21.3979   18.1955   25.9407 O   0  5  0  0  0  0  0  0  0  0  0  0
   19.3083   17.7268   25.8798 O   0  0  0  0  0  0  0  0  0  0  0  0
   19.8924   19.9460   26.4223 C   0  0  0  0  0  0  0  0  0  0  0  0
   20.3559   20.1024   27.4033 H   0  0  0  0  0  0  0  0  0  0  0  0
   18.8092   20.0318   26.5704 H   0  0  0  0  0  0  0  0  0  0  0  0
   20.3933   21.0479   25.4465 C   0  0  0  0  0  0  0  0  0  0  0  0
   20.4595   21.9894   26.0081 H   0  0  0  0  0  0  0  0  0  0  0  0
   21.4183   20.8255   25.1212 H   0  0  0  0  0  0  0  0  0  0  0  0
   19.4720   21.2991   24.2241 C   0  0  0  0  0  0  0  0  0  0  0  0
   19.8441   22.1782   23.6805 H   0  0  0  0  0  0  0  0  0  0  0  0
   18.4702   21.5706   24.5838 H   0  0  0  0  0  0  0  0  0  0  0  0
   19.3406   20.1224   23.2265 C   0  0  0  0  0  0  0  0  0  0  0  0
   18.8856   19.2611   23.7300 H   0  0  0  0  0  0  0  0  0  0  0  0
   18.6383   20.4167   22.4351 H   0  0  0  0  0  0  0  0  0  0  0  0
   20.6852   19.7155   22.5756 C   0  0  0  0  0  0  0  0  0  0  0  0
   21.3681   19.3209   23.3395 H   0  0  0  0  0  0  0  0  0  0  0  0
   21.1661   20.6097   22.1569 H   0  0  0  0  0  0  0  0  0  0  0  0
   20.5271   18.6654   21.4516 C   0  0  0  0  0  0  0  0  0  0  0  0
   19.8524   19.0498   20.6744 H   0  0  0  0  0  0  0  0  0  0  0  0
   21.5031   18.5149   20.9701 H   0  0  0  0  0  0  0  0  0  0  0  0
   20.0098   17.3036   21.9640 C   0  0  0  0  0  0  0  0  0  0  0  0
   18.9852   17.3836   22.3483 H   0  0  0  0  0  0  0  0  0  0  0  0
   20.0062   16.5624   21.1545 H   0  0  0  0  0  0  0  0  0  0  0  0
   20.6472   16.9217   22.7728 H   0  0  0  0  0  0  0  0  0  0  0  0
  1  2  1  0  0  0  0
  1  3  2  0  0  0  0
  1  4  1  0  0  0  0
  4  5  1  0  0  0  0
  4  6  1  0  0  0  0
  4  7  1  0  0  0  0
  7  8  1  0  0  0  0
  7  9  1  0  0  0  0
  7 10  1  0  0  0  0
 10 11  1  0  0  0  0
 10 12  1  0  0  0  0
 10 13  1  0  0  0  0
 13 14  1  0  0  0  0
 13 15  1  0  0  0  0
 13 16  1  0  0  0  0
 16 17  1  0  0  0  0
 16 18  1  0  0  0  0
 16 19  1  0  0  0  0
 19 20  1  0  0  0  0
 19 21  1  0  0  0  0
 19 22  1  0  0  0  0
 22 23  1  0  0  0  0
 22 24  1  0  0  0  0
 22 25  1  0  0  0  0
M  END
> <VM2 Rank>
182

> <Conf_Id>
524

> <Probability>
0.00

> <Sum Probability>
100.00

> <Delta G>
7.823

> <G>
-0.139

> <E>
-26.029

> <-TS>
25.891

> <U+W>
-46.597

> <U>
14.294

> <W>
-60.890

> <W(PB)>
-63.187

> <W(SA)>
2.297

> <Valence>
10.557

> <Coulomb>
3.765

> <VdW>
-0.028

> <VdW6>
-12.699

> <VdW12>
12.671

> <Bond>
0.274

> <Angle>
3.852

> <Pdih>
6.410

> <Idih>
0.022

> <Tether>
0.000

$$$$
VeraChem MOL file


 25 24  0  0  0  0  0  0  0  0999 V2000     
   20.1503   18.5075   26.0158 C   0  0  0  0  0  0  0  0  0  0  0  0
   21.1502   17.8343   25.8586 O   0  5  0  0  0  0  0  0  0  0  0  0
   19.0222   18.0568   25.9680 O   0  0  0  0  0  0  0  0  0  0  0  0
   20.3246   19.9712   26.4173 C   0  0  0  0  0  0  0  0  0  0  0  0
   21.3937   20.1826   26.5405 H   0  0  0  0  0  0  0  0  0  0  0  0
   19.8688   20.0739   27.4089 H   0  0  0  0  0  0  0  0  0  0  0  0
   19.6766   21.0061   25.4548 C   0  0  0  0  0  0  0  0  0  0  0  0
   18.6773   20.6656   25.1530 H   0  0  0  0  0  0  0  0  0  0  0  0
   19.5143   21.9343   26.0190 H   0  0  0  0  0  0  0  0  0  0  0  0
   20.5341   21.3611   24.2118 C   0  0  0  0  0  0  0  0  0  0  0  0
   21.5055   21.7477   24.5487 H   0  0  0  0  0  0  0  0  0  0  0  0
   20.0498   22.1902   23.6781 H   0  0  0  0  0  0  0  0  0  0  0  0
   20.7784   20.2062   23.2099 C   0  0  0  0  0  0  0  0  0  0  0  0
   21.4233   20.5792   22.4029 H   0  0  0  0  0  0  0  0  0  0  0  0
   21.3418   19.4044   23.7016 H   0  0  0  0  0  0  0  0  0  0  0  0
   19.4755   19.6449   22.5896 C   0  0  0  0  0  0  0  0  0  0  0  0
   18.8844   20.4766   22.1833 H   0  0  0  0  0  0  0  0  0  0  0  0
   18.8609   19.1747   23.3685 H   0  0  0  0  0  0  0  0  0  0  0  0
   19.7287   18.6188   21.4608 C   0  0  0  0  0  0  0  0  0  0  0  0
   18.7660   18.3553   21.0017 H   0  0  0  0  0  0  0  0  0  0  0  0
   20.3360   19.0780   20.6688 H   0  0  0  0  0  0  0  0  0  0  0  0
   20.4125   17.3271   21.9593 C   0  0  0  0  0  0  0  0  0  0  0  0
   19.8426   16.8748   22.7821 H   0  0  0  0  0  0  0  0  0  0  0  0
   20.4835   16.5903   21.1490 H   0  0  0  0  0  0  0  0  0  0  0  0
   21.4294   17.5262   22.3200 H   0  0  0  0  0  0  0  0  0  0  0  0
  1  2  1  0  0  0  0
  1  3  2  0  0  0  0
  1  4  1  0  0  0  0
  4  5  1  0  0  0  0
  4  6  1  0  0  0  0
  4  7  1  0  0  0  0
  7  8  1  0  0  0  0
  7  9  1  0  0  0  0
  7 10  1  0  0  0  0
 10 11  1  0  0  0  0
 10 12  1  0  0  0  0
 10 13  1  0  0  0  0
 13 14  1  0  0  0  0
 13 15  1  0  0  0  0
 13 16  1  0  0  0  0
 16 17  1  0  0  0  0
 16 18  1  0  0  0  0
 16 19  1  0  0  0  0
 19 20  1  0  0  0  0
 19 21  1  0  0  0  0
 19 22  1  0  0  0  0
 22 23  1  0  0  0  0
 22 24  1  0  0  0  0
 22 25  1  0  0  0  0
M  END
> <VM2 Rank>
183

> <Conf_Id>
522

> <Probability>
0.00

> <Sum Probability>
100.00

> <Delta G>
7.905

> <G>
-0.057

> <E>
-25.947

> <-TS>
25.890

> <U+W>
-46.515

> <U>
14.294

> <W>
-60.809

> <W(PB)>
-63.117

> <W(SA)>
2.308

> <Valence>
10.557

> <Coulomb>
3.765

> <VdW>
-0.028

> <VdW6>
-12.699

> <VdW12>
12.671

> <Bond>
0.274

> <Angle>
3.852

> <Pdih>
6.410

> <Idih>
0.022

> <Tether>
0.000

$$$$
VeraChem MOL file


 25 24  0  0  0  0  0  0  0  0999 V2000     
   20.6004   19.3234   26.6155 C   0  0  0  0  0  0  0  0  0  0  0  0
   21.6607   19.8742   26.3926 O   0  5  0  0  0  0  0  0  0  0  0  0
   20.5078   18.2141   27.1036 O   0  0  0  0  0  0  0  0  0  0  0  0
   19.3157   20.0878   26.3109 C   0  0  0  0  0  0  0  0  0  0  0  0
   19.4159   21.0749   26.7771 H   0  0  0  0  0  0  0  0  0  0  0  0
   18.4815   19.5869   26.8167 H   0  0  0  0  0  0  0  0  0  0  0  0
   18.9976   20.2685   24.8003 C   0  0  0  0  0  0  0  0  0  0  0  0
   18.1806   20.9976   24.7160 H   0  0  0  0  0  0  0  0  0  0  0  0
   19.8601   20.7183   24.2926 H   0  0  0  0  0  0  0  0  0  0  0  0
   18.5513   18.9655   24.0862 C   0  0  0  0  0  0  0  0  0  0  0  0
   17.9097   19.2213   23.2320 H   0  0  0  0  0  0  0  0  0  0  0  0
   17.9130   18.3898   24.7701 H   0  0  0  0  0  0  0  0  0  0  0  0
   19.7118   18.0614   23.5926 C   0  0  0  0  0  0  0  0  0  0  0  0
   20.5987   18.1798   24.2268 H   0  0  0  0  0  0  0  0  0  0  0  0
   19.4015   17.0142   23.7092 H   0  0  0  0  0  0  0  0  0  0  0  0
   20.1016   18.2730   22.1080 C   0  0  0  0  0  0  0  0  0  0  0  0
   19.2313   18.0720   21.4686 H   0  0  0  0  0  0  0  0  0  0  0  0
   20.8600   17.5247   21.8404 H   0  0  0  0  0  0  0  0  0  0  0  0
   20.6557   19.6804   21.7966 C   0  0  0  0  0  0  0  0  0  0  0  0
   19.8752   20.4342   21.9636 H   0  0  0  0  0  0  0  0  0  0  0  0
   21.4828   19.9127   22.4818 H   0  0  0  0  0  0  0  0  0  0  0  0
   21.1503   19.7856   20.3397 C   0  0  0  0  0  0  0  0  0  0  0  0
   20.3350   19.5827   19.6330 H   0  0  0  0  0  0  0  0  0  0  0  0
   21.5347   20.7930   20.1338 H   0  0  0  0  0  0  0  0  0  0  0  0
   21.9588   19.0686   20.1462 H   0  0  0  0  0  0  0  0  0  0  0  0
  1  2  1  0  0  0  0
  1  3  2  0  0  0  0
  1  4  1  0  0  0  0
  4  5  1  0  0  0  0
  4  6  1  0  0  0  0
  4  7  1  0  0  0  0
  7  8  1  0  0  0  0
  7  9  1  0  0  0  0
  7 10  1  0  0  0  0
 10 11  1  0  0  0  0
 10 12  1  0  0  0  0
 10 13  1  0  0  0  0
 13 14  1  0  0  0  0
 13 15  1  0  0  0  0
 13 16  1  0  0  0  0
 16 17  1  0  0  0  0
 16 18  1  0  0  0  0
 16 19  1  0  0  0  0
 19 20  1  0  0  0  0
 19 21  1  0  0  0  0
 19 22  1  0  0  0  0
 22 23  1  0  0  0  0
 22 24  1  0  0  0  0
 22 25  1  0  0  0  0
M  END
> <VM2 Rank>
184

> <Conf_Id>
370

> <Probability>
0.00

> <Sum Probability>
100.00

> <Delta G>
7.921

> <G>
-0.042

> <E>
-25.283

> <-TS>
25.241

> <U+W>
-45.851

> <U>
14.998

> <W>
-60.849

> <W(PB)>
-63.215

> <W(SA)>
2.366

> <Valence>
12.645

> <Coulomb>
1.771

> <VdW>
0.582

> <VdW6>
-11.471

> <VdW12>
12.053

> <Bond>
0.285

> <Angle>
3.670

> <Pdih>
8.687

> <Idih>
0.004

> <Tether>
0.000

$$$$
VeraChem MOL file


 25 24  0  0  0  0  0  0  0  0999 V2000     
   20.3088   19.7407   26.6066 C   0  0  0  0  0  0  0  0  0  0  0  0
   21.1950   20.5407   26.3787 O   0  5  0  0  0  0  0  0  0  0  0  0
   19.2259   20.0484   27.0650 O   0  0  0  0  0  0  0  0  0  0  0  0
   20.5905   18.2635   26.3494 C   0  0  0  0  0  0  0  0  0  0  0  0
   19.8234   17.6667   26.8573 H   0  0  0  0  0  0  0  0  0  0  0  0
   21.5425   18.0320   26.8413 H   0  0  0  0  0  0  0  0  0  0  0  0
   20.6807   17.8600   24.8512 C   0  0  0  0  0  0  0  0  0  0  0  0
   21.4097   18.5008   24.3394 H   0  0  0  0  0  0  0  0  0  0  0  0
   21.0858   16.8403   24.8038 H   0  0  0  0  0  0  0  0  0  0  0  0
   19.3182   17.8683   24.1094 C   0  0  0  0  0  0  0  0  0  0  0  0
   18.5445   17.4862   24.7893 H   0  0  0  0  0  0  0  0  0  0  0  0
   19.3545   17.1538   23.2758 H   0  0  0  0  0  0  0  0  0  0  0  0
   18.8784   19.2541   23.5674 C   0  0  0  0  0  0  0  0  0  0  0  0
   17.7863   19.3259   23.6604 H   0  0  0  0  0  0  0  0  0  0  0  0
   19.2822   20.0641   24.1869 H   0  0  0  0  0  0  0  0  0  0  0  0
   19.2405   19.5052   22.0819 C   0  0  0  0  0  0  0  0  0  0  0  0
   18.8043   20.4666   21.7782 H   0  0  0  0  0  0  0  0  0  0  0  0
   18.7651   18.7390   21.4545 H   0  0  0  0  0  0  0  0  0  0  0  0
   20.7586   19.5332   21.7996 C   0  0  0  0  0  0  0  0  0  0  0  0
   21.2476   20.2493   22.4745 H   0  0  0  0  0  0  0  0  0  0  0  0
   21.1944   18.5463   22.0034 H   0  0  0  0  0  0  0  0  0  0  0  0
   21.0563   19.9199   20.3367 C   0  0  0  0  0  0  0  0  0  0  0  0
   20.5993   19.2042   19.6409 H   0  0  0  0  0  0  0  0  0  0  0  0
   20.6652   20.9196   20.1069 H   0  0  0  0  0  0  0  0  0  0  0  0
   22.1383   19.9289   20.1519 H   0  0  0  0  0  0  0  0  0  0  0  0
  1  2  1  0  0  0  0
  1  3  2  0  0  0  0
  1  4  1  0  0  0  0
  4  5  1  0  0  0  0
  4  6  1  0  0  0  0
  4  7  1  0  0  0  0
  7  8  1  0  0  0  0
  7  9  1  0  0  0  0
  7 10  1  0  0  0  0
 10 11  1  0  0  0  0
 10 12  1  0  0  0  0
 10 13  1  0  0  0  0
 13 14  1  0  0  0  0
 13 15  1  0  0  0  0
 13 16  1  0  0  0  0
 16 17  1  0  0  0  0
 16 18  1  0  0  0  0
 16 19  1  0  0  0  0
 19 20  1  0  0  0  0
 19 21  1  0  0  0  0
 19 22  1  0  0  0  0
 22 23  1  0  0  0  0
 22 24  1  0  0  0  0
 22 25  1  0  0  0  0
M  END
> <VM2 Rank>
185

> <Conf_Id>
389

> <Probability>
0.00

> <Sum Probability>
100.00

> <Delta G>
7.973

> <G>
0.011

> <E>
-25.230

> <-TS>
25.241

> <U+W>
-45.798

> <U>
14.997

> <W>
-60.795

> <W(PB)>
-63.174

> <W(SA)>
2.379

> <Valence>
12.645

> <Coulomb>
1.770

> <VdW>
0.582

> <VdW6>
-11.471

> <VdW12>
12.053

> <Bond>
0.285

> <Angle>
3.670

> <Pdih>
8.687

> <Idih>
0.003

> <Tether>
0.000

$$$$
VeraChem MOL file


 25 24  0  0  0  0  0  0  0  0999 V2000     
   20.0003   19.7382   26.9884 C   0  0  0  0  0  0  0  0  0  0  0  0
   20.8872   19.8151   27.8156 O   0  5  0  0  0  0  0  0  0  0  0  0
   19.0383   20.4803   26.9621 O   0  0  0  0  0  0  0  0  0  0  0  0
   20.1100   18.6624   25.9138 C   0  0  0  0  0  0  0  0  0  0  0  0
   19.0938   18.3556   25.6435 H   0  0  0  0  0  0  0  0  0  0  0  0
   20.6043   17.7899   26.3572 H   0  0  0  0  0  0  0  0  0  0  0  0
   20.8926   19.1427   24.6635 C   0  0  0  0  0  0  0  0  0  0  0  0
   20.3881   20.0158   24.2326 H   0  0  0  0  0  0  0  0  0  0  0  0
   21.8846   19.4879   24.9856 H   0  0  0  0  0  0  0  0  0  0  0  0
   21.0773   18.0366   23.5937 C   0  0  0  0  0  0  0  0  0  0  0  0
   21.4738   17.1411   24.0912 H   0  0  0  0  0  0  0  0  0  0  0  0
   21.8508   18.3388   22.8755 H   0  0  0  0  0  0  0  0  0  0  0  0
   19.7845   17.6521   22.8277 C   0  0  0  0  0  0  0  0  0  0  0  0
   19.8275   16.5737   22.6234 H   0  0  0  0  0  0  0  0  0  0  0  0
   18.8982   17.7951   23.4578 H   0  0  0  0  0  0  0  0  0  0  0  0
   19.5792   18.3678   21.4661 C   0  0  0  0  0  0  0  0  0  0  0  0
   18.7128   17.8983   20.9806 H   0  0  0  0  0  0  0  0  0  0  0  0
   20.4319   18.1690   20.8027 H   0  0  0  0  0  0  0  0  0  0  0  0
   19.3060   19.8898   21.5464 C   0  0  0  0  0  0  0  0  0  0  0  0
   18.6028   20.1607   20.7468 H   0  0  0  0  0  0  0  0  0  0  0  0
   18.8005   20.1375   22.4895 H   0  0  0  0  0  0  0  0  0  0  0  0
   20.5776   20.7490   21.3687 C   0  0  0  0  0  0  0  0  0  0  0  0
   21.0409   20.5624   20.3912 H   0  0  0  0  0  0  0  0  0  0  0  0
   20.3304   21.8169   21.4250 H   0  0  0  0  0  0  0  0  0  0  0  0
   21.3244   20.5373   22.1418 H   0  0  0  0  0  0  0  0  0  0  0  0
  1  2  1  0  0  0  0
  1  3  2  0  0  0  0
  1  4  1  0  0  0  0
  4  5  1  0  0  0  0
  4  6  1  0  0  0  0
  4  7  1  0  0  0  0
  7  8  1  0  0  0  0
  7  9  1  0  0  0  0
  7 10  1  0  0  0  0
 10 11  1  0  0  0  0
 10 12  1  0  0  0  0
 10 13  1  0  0  0  0
 13 14  1  0  0  0  0
 13 15  1  0  0  0  0
 13 16  1  0  0  0  0
 16 17  1  0  0  0  0
 16 18  1  0  0  0  0
 16 19  1  0  0  0  0
 19 20  1  0  0  0  0
 19 21  1  0  0  0  0
 19 22  1  0  0  0  0
 22 23  1  0  0  0  0
 22 24  1  0  0  0  0
 22 25  1  0  0  0  0
M  END
> <VM2 Rank>
186

> <Conf_Id>
1091

> <Probability>
0.00

> <Sum Probability>
100.00

> <Delta G>
8.220

> <G>
0.257

> <E>
-25.042

> <-TS>
25.299

> <U+W>
-45.610

> <U>
14.522

> <W>
-60.131

> <W(PB)>
-62.514

> <W(SA)>
2.382

> <Valence>
13.852

> <Coulomb>
-0.211

> <VdW>
0.880

> <VdW6>
-11.048

> <VdW12>
11.928

> <Bond>
0.293

> <Angle>
3.945

> <Pdih>
9.614

> <Idih>
0.000

> <Tether>
0.000

$$$$
VeraChem MOL file


 25 24  0  0  0  0  0  0  0  0999 V2000     
   20.2404   19.0133   27.0290 C   0  0  0  0  0  0  0  0  0  0  0  0
   21.4211   19.1612   27.2761 O   0  5  0  0  0  0  0  0  0  0  0  0
   19.3472   19.4511   27.7274 O   0  0  0  0  0  0  0  0  0  0  0  0
   19.8557   18.2172   25.7852 C   0  0  0  0  0  0  0  0  0  0  0  0
   19.0677   17.5131   26.0768 H   0  0  0  0  0  0  0  0  0  0  0  0
   20.7187   17.6165   25.4732 H   0  0  0  0  0  0  0  0  0  0  0  0
   19.3586   19.0911   24.6046 C   0  0  0  0  0  0  0  0  0  0  0  0
   18.9736   18.4333   23.8170 H   0  0  0  0  0  0  0  0  0  0  0  0
   18.5101   19.7038   24.9390 H   0  0  0  0  0  0  0  0  0  0  0  0
   20.4689   20.0077   24.0358 C   0  0  0  0  0  0  0  0  0  0  0  0
   21.3671   19.4254   23.7914 H   0  0  0  0  0  0  0  0  0  0  0  0
   20.7715   20.7096   24.8251 H   0  0  0  0  0  0  0  0  0  0  0  0
   20.0130   20.8268   22.8030 C   0  0  0  0  0  0  0  0  0  0  0  0
   18.9320   21.0165   22.8505 H   0  0  0  0  0  0  0  0  0  0  0  0
   20.4882   21.8154   22.8646 H   0  0  0  0  0  0  0  0  0  0  0  0
   20.3879   20.2233   21.4232 C   0  0  0  0  0  0  0  0  0  0  0  0
   21.4768   20.0977   21.3504 H   0  0  0  0  0  0  0  0  0  0  0  0
   20.1261   20.9702   20.6612 H   0  0  0  0  0  0  0  0  0  0  0  0
   19.6714   18.9017   21.0517 C   0  0  0  0  0  0  0  0  0  0  0  0
   18.6767   18.8634   21.5155 H   0  0  0  0  0  0  0  0  0  0  0  0
   19.4987   18.8924   19.9666 H   0  0  0  0  0  0  0  0  0  0  0  0
   20.4888   17.6405   21.4101 C   0  0  0  0  0  0  0  0  0  0  0  0
   20.6908   17.5760   22.4849 H   0  0  0  0  0  0  0  0  0  0  0  0
   21.4525   17.6381   20.8847 H   0  0  0  0  0  0  0  0  0  0  0  0
   19.9441   16.7339   21.1167 H   0  0  0  0  0  0  0  0  0  0  0  0
  1  2  1  0  0  0  0
  1  3  2  0  0  0  0
  1  4  1  0  0  0  0
  4  5  1  0  0  0  0
  4  6  1  0  0  0  0
  4  7  1  0  0  0  0
  7  8  1  0  0  0  0
  7  9  1  0  0  0  0
  7 10  1  0  0  0  0
 10 11  1  0  0  0  0
 10 12  1  0  0  0  0
 10 13  1  0  0  0  0
 13 14  1  0  0  0  0
 13 15  1  0  0  0  0
 13 16  1  0  0  0  0
 16 17  1  0  0  0  0
 16 18  1  0  0  0  0
 16 19  1  0  0  0  0
 19 20  1  0  0  0  0
 19 21  1  0  0  0  0
 19 22  1  0  0  0  0
 22 23  1  0  0  0  0
 22 24  1  0  0  0  0
 22 25  1  0  0  0  0
M  END
> <VM2 Rank>
187

> <Conf_Id>
859

> <Probability>
0.00

> <Sum Probability>
100.00

> <Delta G>
8.622

> <G>
0.660

> <E>
-24.902

> <-TS>
25.561

> <U+W>
-45.469

> <U>
14.630

> <W>
-60.099

> <W(PB)>
-62.445

> <W(SA)>
2.346

> <Valence>
13.402

> <Coulomb>
0.625

> <VdW>
0.603

> <VdW6>
-11.386

> <VdW12>
11.989

> <Bond>
0.263

> <Angle>
3.872

> <Pdih>
9.266

> <Idih>
0.001

> <Tether>
0.000

$$$$
VeraChem MOL file


 25 24  0  0  0  0  0  0  0  0999 V2000     
   20.5497   19.9042   26.0257 C   0  0  0  0  0  0  0  0  0  0  0  0
   21.5576   20.4175   25.5815 O   0  5  0  0  0  0  0  0  0  0  0  0
   19.6014   20.5436   26.4387 O   0  0  0  0  0  0  0  0  0  0  0  0
   20.5352   18.3830   26.1856 C   0  0  0  0  0  0  0  0  0  0  0  0
   20.7463   18.1884   27.2432 H   0  0  0  0  0  0  0  0  0  0  0  0
   21.3703   17.9567   25.6171 H   0  0  0  0  0  0  0  0  0  0  0  0
   19.2054   17.6741   25.8002 C   0  0  0  0  0  0  0  0  0  0  0  0
   19.1655   16.7169   26.3375 H   0  0  0  0  0  0  0  0  0  0  0  0
   18.3494   18.2568   26.1677 H   0  0  0  0  0  0  0  0  0  0  0  0
   19.0270   17.3690   24.2907 C   0  0  0  0  0  0  0  0  0  0  0  0
   18.0976   16.7941   24.1784 H   0  0  0  0  0  0  0  0  0  0  0  0
   19.8297   16.7037   23.9444 H   0  0  0  0  0  0  0  0  0  0  0  0
   18.9305   18.6172   23.3789 C   0  0  0  0  0  0  0  0  0  0  0  0
   18.1472   18.4446   22.6282 H   0  0  0  0  0  0  0  0  0  0  0  0
   18.6055   19.4895   23.9623 H   0  0  0  0  0  0  0  0  0  0  0  0
   20.2514   18.9244   22.6367 C   0  0  0  0  0  0  0  0  0  0  0  0
   20.5150   18.0739   21.9933 H   0  0  0  0  0  0  0  0  0  0  0  0
   21.0706   19.0400   23.3569 H   0  0  0  0  0  0  0  0  0  0  0  0
   20.1406   20.2026   21.7797 C   0  0  0  0  0  0  0  0  0  0  0  0
   19.3208   20.0954   21.0561 H   0  0  0  0  0  0  0  0  0  0  0  0
   19.8897   21.0562   22.4250 H   0  0  0  0  0  0  0  0  0  0  0  0
   21.4542   20.4984   21.0284 C   0  0  0  0  0  0  0  0  0  0  0  0
   21.3587   21.4113   20.4264 H   0  0  0  0  0  0  0  0  0  0  0  0
   22.2836   20.6422   21.7336 H   0  0  0  0  0  0  0  0  0  0  0  0
   21.7160   19.6726   20.3542 H   0  0  0  0  0  0  0  0  0  0  0  0
  1  2  1  0  0  0  0
  1  3  2  0  0  0  0
  1  4  1  0  0  0  0
  4  5  1  0  0  0  0
  4  6  1  0  0  0  0
  4  7  1  0  0  0  0
  7  8  1  0  0  0  0
  7  9  1  0  0  0  0
  7 10  1  0  0  0  0
 10 11  1  0  0  0  0
 10 12  1  0  0  0  0
 10 13  1  0  0  0  0
 13 14  1  0  0  0  0
 13 15  1  0  0  0  0
 13 16  1  0  0  0  0
 16 17  1  0  0  0  0
 16 18  1  0  0  0  0
 16 19  1  0  0  0  0
 19 20  1  0  0  0  0
 19 21  1  0  0  0  0
 19 22  1  0  0  0  0
 22 23  1  0  0  0  0
 22 24  1  0  0  0  0
 22 25  1  0  0  0  0
M  END
> <VM2 Rank>
188

> <Conf_Id>
297

> <Probability>
0.00

> <Sum Probability>
100.00

> <Delta G>
8.700

> <G>
0.738

> <E>
-24.792

> <-TS>
25.530

> <U+W>
-45.360

> <U>
15.897

> <W>
-61.257

> <W(PB)>
-63.624

> <W(SA)>
2.368

> <Valence>
12.566

> <Coulomb>
3.123

> <VdW>
0.208

> <VdW6>
-11.860

> <VdW12>
12.068

> <Bond>
0.250

> <Angle>
3.828

> <Pdih>
8.467

> <Idih>
0.021

> <Tether>
0.000

$$$$
VeraChem MOL file


 25 24  0  0  0  0  0  0  0  0999 V2000     
   19.4069   18.9842   26.0302 C   0  0  0  0  0  0  0  0  0  0  0  0
   18.6881   18.1075   25.5925 O   0  5  0  0  0  0  0  0  0  0  0  0
   18.9867   20.0487   26.4410 O   0  0  0  0  0  0  0  0  0  0  0  0
   20.8968   18.6740   26.1841 C   0  0  0  0  0  0  0  0  0  0  0  0
   21.1323   17.7651   25.6178 H   0  0  0  0  0  0  0  0  0  0  0  0
   21.0468   18.4301   27.2420 H   0  0  0  0  0  0  0  0  0  0  0  0
   21.8715   19.8204   25.7900 C   0  0  0  0  0  0  0  0  0  0  0  0
   21.4867   20.7824   26.1557 H   0  0  0  0  0  0  0  0  0  0  0  0
   22.8176   19.6569   26.3234 H   0  0  0  0  0  0  0  0  0  0  0  0
   22.2006   19.9240   24.2785 C   0  0  0  0  0  0  0  0  0  0  0  0
   22.6776   18.9964   23.9334 H   0  0  0  0  0  0  0  0  0  0  0  0
   22.9602   20.7087   24.1598 H   0  0  0  0  0  0  0  0  0  0  0  0
   20.9976   20.2812   23.3709 C   0  0  0  0  0  0  0  0  0  0  0  0
   20.2175   20.7873   23.9561 H   0  0  0  0  0  0  0  0  0  0  0  0
   21.3299   21.0067   22.6160 H   0  0  0  0  0  0  0  0  0  0  0  0
   20.4120   19.0536   22.6361 C   0  0  0  0  0  0  0  0  0  0  0  0
   20.1274   18.2808   23.3606 H   0  0  0  0  0  0  0  0  0  0  0  0
   21.1835   18.6121   21.9908 H   0  0  0  0  0  0  0  0  0  0  0  0
   19.1829   19.4317   21.7835 C   0  0  0  0  0  0  0  0  0  0  0  0
   18.4055   19.8613   22.4308 H   0  0  0  0  0  0  0  0  0  0  0  0
   19.4593   20.2070   21.0557 H   0  0  0  0  0  0  0  0  0  0  0  0
   18.6100   18.2087   21.0393 C   0  0  0  0  0  0  0  0  0  0  0  0
   19.3578   17.7742   20.3631 H   0  0  0  0  0  0  0  0  0  0  0  0
   18.2958   17.4317   21.7487 H   0  0  0  0  0  0  0  0  0  0  0  0
   17.7357   18.4947   20.4403 H   0  0  0  0  0  0  0  0  0  0  0  0
  1  2  1  0  0  0  0
  1  3  2  0  0  0  0
  1  4  1  0  0  0  0
  4  5  1  0  0  0  0
  4  6  1  0  0  0  0
  4  7  1  0  0  0  0
  7  8  1  0  0  0  0
  7  9  1  0  0  0  0
  7 10  1  0  0  0  0
 10 11  1  0  0  0  0
 10 12  1  0  0  0  0
 10 13  1  0  0  0  0
 13 14  1  0  0  0  0
 13 15  1  0  0  0  0
 13 16  1  0  0  0  0
 16 17  1  0  0  0  0
 16 18  1  0  0  0  0
 16 19  1  0  0  0  0
 19 20  1  0  0  0  0
 19 21  1  0  0  0  0
 19 22  1  0  0  0  0
 22 23  1  0  0  0  0
 22 24  1  0  0  0  0
 22 25  1  0  0  0  0
M  END
> <VM2 Rank>
189

> <Conf_Id>
80

> <Probability>
0.00

> <Sum Probability>
100.00

> <Delta G>
8.758

> <G>
0.796

> <E>
-24.735

> <-TS>
25.531

> <U+W>
-45.302

> <U>
15.898

> <W>
-61.201

> <W(PB)>
-63.554

> <W(SA)>
2.353

> <Valence>
12.566

> <Coulomb>
3.124

> <VdW>
0.208

> <VdW6>
-11.861

> <VdW12>
12.069

> <Bond>
0.250

> <Angle>
3.828

> <Pdih>
8.466

> <Idih>
0.022

> <Tether>
0.000

$$$$
VeraChem MOL file


 25 24  0  0  0  0  0  0  0  0999 V2000     
   20.6502   18.9947   26.5410 C   0  0  0  0  0  0  0  0  0  0  0  0
   21.8557   19.1131   26.4434 O   0  5  0  0  0  0  0  0  0  0  0  0
   20.1007   17.9704   26.8963 O   0  0  0  0  0  0  0  0  0  0  0  0
   19.7823   20.2129   26.2376 C   0  0  0  0  0  0  0  0  0  0  0  0
   20.2700   21.0841   26.6906 H   0  0  0  0  0  0  0  0  0  0  0  0
   18.8174   20.0900   26.7442 H   0  0  0  0  0  0  0  0  0  0  0  0
   19.5651   20.4709   24.7240 C   0  0  0  0  0  0  0  0  0  0  0  0
   19.0639   21.4399   24.5985 H   0  0  0  0  0  0  0  0  0  0  0  0
   20.5405   20.5598   24.2309 H   0  0  0  0  0  0  0  0  0  0  0  0
   18.7109   19.3690   24.0506 C   0  0  0  0  0  0  0  0  0  0  0  0
   17.7394   19.3333   24.5620 H   0  0  0  0  0  0  0  0  0  0  0  0
   19.1637   18.3790   24.1955 H   0  0  0  0  0  0  0  0  0  0  0  0
   18.4606   19.6225   22.5431 C   0  0  0  0  0  0  0  0  0  0  0  0
   17.4454   19.2735   22.3101 H   0  0  0  0  0  0  0  0  0  0  0  0
   18.4563   20.7008   22.3335 H   0  0  0  0  0  0  0  0  0  0  0  0
   19.4287   18.8958   21.5722 C   0  0  0  0  0  0  0  0  0  0  0  0
   19.0511   19.0606   20.5538 H   0  0  0  0  0  0  0  0  0  0  0  0
   19.3782   17.8103   21.7330 H   0  0  0  0  0  0  0  0  0  0  0  0
   20.9006   19.3744   21.6120 C   0  0  0  0  0  0  0  0  0  0  0  0
   21.3113   19.3256   20.5941 H   0  0  0  0  0  0  0  0  0  0  0  0
   20.9511   20.4308   21.9075 H   0  0  0  0  0  0  0  0  0  0  0  0
   21.7982   18.5103   22.5257 C   0  0  0  0  0  0  0  0  0  0  0  0
   21.8166   17.4679   22.1823 H   0  0  0  0  0  0  0  0  0  0  0  0
   22.8295   18.8853   22.5176 H   0  0  0  0  0  0  0  0  0  0  0  0
   21.4501   18.5160   23.5651 H   0  0  0  0  0  0  0  0  0  0  0  0
  1  2  1  0  0  0  0
  1  3  2  0  0  0  0
  1  4  1  0  0  0  0
  4  5  1  0  0  0  0
  4  6  1  0  0  0  0
  4  7  1  0  0  0  0
  7  8  1  0  0  0  0
  7  9  1  0  0  0  0
  7 10  1  0  0  0  0
 10 11  1  0  0  0  0
 10 12  1  0  0  0  0
 10 13  1  0  0  0  0
 13 14  1  0  0  0  0
 13 15  1  0  0  0  0
 13 16  1  0  0  0  0
 16 17  1  0  0  0  0
 16 18  1  0  0  0  0
 16 19  1  0  0  0  0
 19 20  1  0  0  0  0
 19 21  1  0  0  0  0
 19 22  1  0  0  0  0
 22 23  1  0  0  0  0
 22 24  1  0  0  0  0
 22 25  1  0  0  0  0
M  END
> <VM2 Rank>
190

> <Conf_Id>
280

> <Probability>
0.00

> <Sum Probability>
100.00

> <Delta G>
9.325

> <G>
1.362

> <E>
-24.493

> <-TS>
25.855

> <U+W>
-45.061

> <U>
16.131

> <W>
-61.191

> <W(PB)>
-63.538

> <W(SA)>
2.347

> <Valence>
13.422

> <Coulomb>
2.541

> <VdW>
0.168

> <VdW6>
-12.055

> <VdW12>
12.224

> <Bond>
0.261

> <Angle>
3.880

> <Pdih>
9.278

> <Idih>
0.002

> <Tether>
0.000

$$$$
VeraChem MOL file


 25 24  0  0  0  0  0  0  0  0999 V2000     
   20.1956   19.9714   26.1327 C   0  0  0  0  0  0  0  0  0  0  0  0
   19.0292   20.1687   26.4142 O   0  5  0  0  0  0  0  0  0  0  0  0
   20.9704   20.8602   25.8384 O   0  0  0  0  0  0  0  0  0  0  0  0
   20.7538   18.5546   26.2753 C   0  0  0  0  0  0  0  0  0  0  0  0
   20.8578   18.3775   27.3518 H   0  0  0  0  0  0  0  0  0  0  0  0
   21.7662   18.5253   25.8551 H   0  0  0  0  0  0  0  0  0  0  0  0
   19.8837   17.4207   25.6616 C   0  0  0  0  0  0  0  0  0  0  0  0
   20.1455   16.4824   26.1690 H   0  0  0  0  0  0  0  0  0  0  0  0
   18.8235   17.5970   25.8907 H   0  0  0  0  0  0  0  0  0  0  0  0
   20.0631   17.1933   24.1384 C   0  0  0  0  0  0  0  0  0  0  0  0
   19.4644   16.3141   23.8637 H   0  0  0  0  0  0  0  0  0  0  0  0
   21.1047   16.9221   23.9183 H   0  0  0  0  0  0  0  0  0  0  0  0
   19.6142   18.3761   23.2449 C   0  0  0  0  0  0  0  0  0  0  0  0
   19.0797   17.9702   22.3762 H   0  0  0  0  0  0  0  0  0  0  0  0
   18.8911   19.0045   23.7824 H   0  0  0  0  0  0  0  0  0  0  0  0
   20.8016   19.2300   22.7377 C   0  0  0  0  0  0  0  0  0  0  0  0
   21.4321   18.6250   22.0723 H   0  0  0  0  0  0  0  0  0  0  0  0
   21.4371   19.5158   23.5847 H   0  0  0  0  0  0  0  0  0  0  0  0
   20.3603   20.5171   22.0036 C   0  0  0  0  0  0  0  0  0  0  0  0
   19.7496   21.1332   22.6784 H   0  0  0  0  0  0  0  0  0  0  0  0
   21.2534   21.1112   21.7660 H   0  0  0  0  0  0  0  0  0  0  0  0
   19.5810   20.2418   20.6992 C   0  0  0  0  0  0  0  0  0  0  0  0
   18.6230   19.7473   20.9028 H   0  0  0  0  0  0  0  0  0  0  0  0
   19.3652   21.1819   20.1753 H   0  0  0  0  0  0  0  0  0  0  0  0
   20.1622   19.6026   20.0220 H   0  0  0  0  0  0  0  0  0  0  0  0
  1  2  1  0  0  0  0
  1  3  2  0  0  0  0
  1  4  1  0  0  0  0
  4  5  1  0  0  0  0
  4  6  1  0  0  0  0
  4  7  1  0  0  0  0
  7  8  1  0  0  0  0
  7  9  1  0  0  0  0
  7 10  1  0  0  0  0
 10 11  1  0  0  0  0
 10 12  1  0  0  0  0
 10 13  1  0  0  0  0
 13 14  1  0  0  0  0
 13 15  1  0  0  0  0
 13 16  1  0  0  0  0
 16 17  1  0  0  0  0
 16 18  1  0  0  0  0
 16 19  1  0  0  0  0
 19 20  1  0  0  0  0
 19 21  1  0  0  0  0
 19 22  1  0  0  0  0
 22 23  1  0  0  0  0
 22 24  1  0  0  0  0
 22 25  1  0  0  0  0
M  END
> <VM2 Rank>
191

> <Conf_Id>
463

> <Probability>
0.00

> <Sum Probability>
100.00

> <Delta G>
9.599

> <G>
1.637

> <E>
-24.084

> <-TS>
25.721

> <U+W>
-44.652

> <U>
16.286

> <W>
-60.938

> <W(PB)>
-63.286

> <W(SA)>
2.348

> <Valence>
13.053

> <Coulomb>
2.895

> <VdW>
0.338

> <VdW6>
-12.524

> <VdW12>
12.861

> <Bond>
0.282

> <Angle>
4.008

> <Pdih>
8.740

> <Idih>
0.022

> <Tether>
0.000

$$$$
VeraChem MOL file


 25 24  0  0  0  0  0  0  0  0999 V2000     
   20.4529   18.9972   26.7508 C   0  0  0  0  0  0  0  0  0  0  0  0
   21.5599   19.4984   26.7330 O   0  5  0  0  0  0  0  0  0  0  0  0
   19.7541   18.9465   27.7441 O   0  0  0  0  0  0  0  0  0  0  0  0
   19.9189   18.3742   25.4638 C   0  0  0  0  0  0  0  0  0  0  0  0
   19.5318   17.3815   25.7208 H   0  0  0  0  0  0  0  0  0  0  0  0
   20.7615   18.2150   24.7843 H   0  0  0  0  0  0  0  0  0  0  0  0
   18.7957   19.2026   24.7802 C   0  0  0  0  0  0  0  0  0  0  0  0
   18.3239   18.6130   23.9832 H   0  0  0  0  0  0  0  0  0  0  0  0
   18.0085   19.3810   25.5258 H   0  0  0  0  0  0  0  0  0  0  0  0
   19.2620   20.5693   24.2158 C   0  0  0  0  0  0  0  0  0  0  0  0
   20.0749   20.9823   24.8283 H   0  0  0  0  0  0  0  0  0  0  0  0
   18.4271   21.2753   24.3221 H   0  0  0  0  0  0  0  0  0  0  0  0
   19.6727   20.5686   22.7195 C   0  0  0  0  0  0  0  0  0  0  0  0
   18.8331   20.2226   22.1040 H   0  0  0  0  0  0  0  0  0  0  0  0
   19.8375   21.6148   22.4281 H   0  0  0  0  0  0  0  0  0  0  0  0
   20.9652   19.7793   22.3853 C   0  0  0  0  0  0  0  0  0  0  0  0
   21.6264   19.7724   23.2622 H   0  0  0  0  0  0  0  0  0  0  0  0
   21.5192   20.3208   21.6064 H   0  0  0  0  0  0  0  0  0  0  0  0
   20.7287   18.3305   21.8908 C   0  0  0  0  0  0  0  0  0  0  0  0
   21.6883   17.7959   21.8987 H   0  0  0  0  0  0  0  0  0  0  0  0
   20.0688   17.7906   22.5804 H   0  0  0  0  0  0  0  0  0  0  0  0
   20.1429   18.2674   20.4629 C   0  0  0  0  0  0  0  0  0  0  0  0
   20.7919   18.7906   19.7487 H   0  0  0  0  0  0  0  0  0  0  0  0
   20.0502   17.2248   20.1323 H   0  0  0  0  0  0  0  0  0  0  0  0
   19.1456   18.7214   20.4153 H   0  0  0  0  0  0  0  0  0  0  0  0
  1  2  1  0  0  0  0
  1  3  2  0  0  0  0
  1  4  1  0  0  0  0
  4  5  1  0  0  0  0
  4  6  1  0  0  0  0
  4  7  1  0  0  0  0
  7  8  1  0  0  0  0
  7  9  1  0  0  0  0
  7 10  1  0  0  0  0
 10 11  1  0  0  0  0
 10 12  1  0  0  0  0
 10 13  1  0  0  0  0
 13 14  1  0  0  0  0
 13 15  1  0  0  0  0
 13 16  1  0  0  0  0
 16 17  1  0  0  0  0
 16 18  1  0  0  0  0
 16 19  1  0  0  0  0
 19 20  1  0  0  0  0
 19 21  1  0  0  0  0
 19 22  1  0  0  0  0
 22 23  1  0  0  0  0
 22 24  1  0  0  0  0
 22 25  1  0  0  0  0
M  END
> <VM2 Rank>
192

> <Conf_Id>
218

> <Probability>
0.00

> <Sum Probability>
100.00

> <Delta G>
9.668

> <G>
1.706

> <E>
-23.981

> <-TS>
25.687

> <U+W>
-44.548

> <U>
15.771

> <W>
-60.320

> <W(PB)>
-62.675

> <W(SA)>
2.355

> <Valence>
14.167

> <Coulomb>
0.908

> <VdW>
0.696

> <VdW6>
-12.061

> <VdW12>
12.757

> <Bond>
0.324

> <Angle>
4.148

> <Pdih>
9.694

> <Idih>
0.001

> <Tether>
0.000

$$$$
VeraChem MOL file


 25 24  0  0  0  0  0  0  0  0999 V2000     
   20.1890   19.1783   26.9862 C   0  0  0  0  0  0  0  0  0  0  0  0
   21.2035   19.3600   27.6306 O   0  5  0  0  0  0  0  0  0  0  0  0
   19.1110   19.6557   27.2815 O   0  0  0  0  0  0  0  0  0  0  0  0
   20.2709   18.2814   25.7541 C   0  0  0  0  0  0  0  0  0  0  0  0
   19.2566   17.9718   25.4798 H   0  0  0  0  0  0  0  0  0  0  0  0
   20.8034   17.3706   26.0517 H   0  0  0  0  0  0  0  0  0  0  0  0
   21.0006   18.9289   24.5446 C   0  0  0  0  0  0  0  0  0  0  0  0
   22.0142   19.2109   24.8608 H   0  0  0  0  0  0  0  0  0  0  0  0
   21.1258   18.1752   23.7588 H   0  0  0  0  0  0  0  0  0  0  0  0
   20.2922   20.1835   23.9696 C   0  0  0  0  0  0  0  0  0  0  0  0
   20.9747   20.7188   23.2965 H   0  0  0  0  0  0  0  0  0  0  0  0
   20.0943   20.8801   24.7956 H   0  0  0  0  0  0  0  0  0  0  0  0
   18.9593   19.8973   23.2300 C   0  0  0  0  0  0  0  0  0  0  0  0
   18.4592   19.0161   23.6497 H   0  0  0  0  0  0  0  0  0  0  0  0
   18.2822   20.7388   23.4302 H   0  0  0  0  0  0  0  0  0  0  0  0
   19.0687   19.7542   21.6886 C   0  0  0  0  0  0  0  0  0  0  0  0
   19.5009   20.6662   21.2547 H   0  0  0  0  0  0  0  0  0  0  0  0
   18.0447   19.6975   21.2949 H   0  0  0  0  0  0  0  0  0  0  0  0
   19.8357   18.5063   21.1867 C   0  0  0  0  0  0  0  0  0  0  0  0
   19.7413   17.6844   21.9090 H   0  0  0  0  0  0  0  0  0  0  0  0
   19.3590   18.1521   20.2623 H   0  0  0  0  0  0  0  0  0  0  0  0
   21.3222   18.7884   20.8740 C   0  0  0  0  0  0  0  0  0  0  0  0
   21.8194   17.8771   20.5179 H   0  0  0  0  0  0  0  0  0  0  0  0
   21.4177   19.5513   20.0906 H   0  0  0  0  0  0  0  0  0  0  0  0
   21.8649   19.1427   21.7573 H   0  0  0  0  0  0  0  0  0  0  0  0
  1  2  1  0  0  0  0
  1  3  2  0  0  0  0
  1  4  1  0  0  0  0
  4  5  1  0  0  0  0
  4  6  1  0  0  0  0
  4  7  1  0  0  0  0
  7  8  1  0  0  0  0
  7  9  1  0  0  0  0
  7 10  1  0  0  0  0
 10 11  1  0  0  0  0
 10 12  1  0  0  0  0
 10 13  1  0  0  0  0
 13 14  1  0  0  0  0
 13 15  1  0  0  0  0
 13 16  1  0  0  0  0
 16 17  1  0  0  0  0
 16 18  1  0  0  0  0
 16 19  1  0  0  0  0
 19 20  1  0  0  0  0
 19 21  1  0  0  0  0
 19 22  1  0  0  0  0
 22 23  1  0  0  0  0
 22 24  1  0  0  0  0
 22 25  1  0  0  0  0
M  END
> <VM2 Rank>
193

> <Conf_Id>
268

> <Probability>
0.00

> <Sum Probability>
100.00

> <Delta G>
9.709

> <G>
1.747

> <E>
-23.791

> <-TS>
25.538

> <U+W>
-44.359

> <U>
15.815

> <W>
-60.174

> <W(PB)>
-62.541

> <W(SA)>
2.367

> <Valence>
14.172

> <Coulomb>
0.907

> <VdW>
0.736

> <VdW6>
-11.919

> <VdW12>
12.656

> <Bond>
0.329

> <Angle>
4.231

> <Pdih>
9.612

> <Idih>
0.001

> <Tether>
0.000

$$$$
VeraChem MOL file


 25 24  0  0  0  0  0  0  0  0999 V2000     
   19.8964   19.7709   26.3648 C   0  0  0  0  0  0  0  0  0  0  0  0
   20.9313   20.2612   26.7724 O   0  5  0  0  0  0  0  0  0  0  0  0
   18.8967   20.4167   26.1184 O   0  0  0  0  0  0  0  0  0  0  0  0
   19.8256   18.2538   26.2181 C   0  0  0  0  0  0  0  0  0  0  0  0
   18.9161   17.9282   26.7363 H   0  0  0  0  0  0  0  0  0  0  0  0
   20.6692   17.8096   26.7598 H   0  0  0  0  0  0  0  0  0  0  0  0
   19.7908   17.7306   24.7549 C   0  0  0  0  0  0  0  0  0  0  0  0
   19.5187   16.6672   24.7885 H   0  0  0  0  0  0  0  0  0  0  0  0
   18.9872   18.2303   24.2007 H   0  0  0  0  0  0  0  0  0  0  0  0
   21.1424   17.8518   24.0035 C   0  0  0  0  0  0  0  0  0  0  0  0
   21.1851   17.0901   23.2132 H   0  0  0  0  0  0  0  0  0  0  0  0
   21.9539   17.5972   24.6988 H   0  0  0  0  0  0  0  0  0  0  0  0
   21.4292   19.2435   23.3789 C   0  0  0  0  0  0  0  0  0  0  0  0
   20.9434   20.0431   23.9495 H   0  0  0  0  0  0  0  0  0  0  0  0
   22.5067   19.4359   23.4694 H   0  0  0  0  0  0  0  0  0  0  0  0
   21.0640   19.3573   21.8753 C   0  0  0  0  0  0  0  0  0  0  0  0
   21.6094   18.5830   21.3188 H   0  0  0  0  0  0  0  0  0  0  0  0
   21.4362   20.3180   21.4944 H   0  0  0  0  0  0  0  0  0  0  0  0
   19.5575   19.2429   21.5420 C   0  0  0  0  0  0  0  0  0  0  0  0
   19.4407   19.2356   20.4497 H   0  0  0  0  0  0  0  0  0  0  0  0
   19.1635   18.2811   21.8946 H   0  0  0  0  0  0  0  0  0  0  0  0
   18.7191   20.4053   22.1178 C   0  0  0  0  0  0  0  0  0  0  0  0
   18.7470   20.4178   23.2149 H   0  0  0  0  0  0  0  0  0  0  0  0
   19.0908   21.3728   21.7567 H   0  0  0  0  0  0  0  0  0  0  0  0
   17.6693   20.3108   21.8122 H   0  0  0  0  0  0  0  0  0  0  0  0
  1  2  1  0  0  0  0
  1  3  2  0  0  0  0
  1  4  1  0  0  0  0
  4  5  1  0  0  0  0
  4  6  1  0  0  0  0
  4  7  1  0  0  0  0
  7  8  1  0  0  0  0
  7  9  1  0  0  0  0
  7 10  1  0  0  0  0
 10 11  1  0  0  0  0
 10 12  1  0  0  0  0
 10 13  1  0  0  0  0
 13 14  1  0  0  0  0
 13 15  1  0  0  0  0
 13 16  1  0  0  0  0
 16 17  1  0  0  0  0
 16 18  1  0  0  0  0
 16 19  1  0  0  0  0
 19 20  1  0  0  0  0
 19 21  1  0  0  0  0
 19 22  1  0  0  0  0
 22 23  1  0  0  0  0
 22 24  1  0  0  0  0
 22 25  1  0  0  0  0
M  END
> <VM2 Rank>
194

> <Conf_Id>
277

> <Probability>
0.00

> <Sum Probability>
100.00

> <Delta G>
9.740

> <G>
1.777

> <E>
-24.251

> <-TS>
26.028

> <U+W>
-44.819

> <U>
16.612

> <W>
-61.431

> <W(PB)>
-63.709

> <W(SA)>
2.277

> <Valence>
13.358

> <Coulomb>
3.088

> <VdW>
0.167

> <VdW6>
-12.848

> <VdW12>
13.015

> <Bond>
0.326

> <Angle>
4.202

> <Pdih>
8.823

> <Idih>
0.006

> <Tether>
0.000

$$$$
VeraChem MOL file


 25 24  0  0  0  0  0  0  0  0999 V2000     
   20.6444   19.1854   26.4644 C   0  0  0  0  0  0  0  0  0  0  0  0
   21.8342   19.3570   26.2853 O   0  5  0  0  0  0  0  0  0  0  0  0
   20.1884   18.2075   27.0250 O   0  0  0  0  0  0  0  0  0  0  0  0
   19.6897   20.3098   26.0620 C   0  0  0  0  0  0  0  0  0  0  0  0
   20.2402   21.0506   25.4698 H   0  0  0  0  0  0  0  0  0  0  0  0
   19.3983   20.8082   26.9936 H   0  0  0  0  0  0  0  0  0  0  0  0
   18.4051   19.8646   25.3063 C   0  0  0  0  0  0  0  0  0  0  0  0
   17.9957   18.9535   25.7641 H   0  0  0  0  0  0  0  0  0  0  0  0
   17.6415   20.6404   25.4526 H   0  0  0  0  0  0  0  0  0  0  0  0
   18.5759   19.6600   23.7793 C   0  0  0  0  0  0  0  0  0  0  0  0
   18.9013   20.6004   23.3179 H   0  0  0  0  0  0  0  0  0  0  0  0
   17.5823   19.4539   23.3586 H   0  0  0  0  0  0  0  0  0  0  0  0
   19.5157   18.4922   23.3808 C   0  0  0  0  0  0  0  0  0  0  0  0
   19.6153   17.7970   24.2253 H   0  0  0  0  0  0  0  0  0  0  0  0
   19.0422   17.9049   22.5843 H   0  0  0  0  0  0  0  0  0  0  0  0
   20.9271   18.9372   22.9160 C   0  0  0  0  0  0  0  0  0  0  0  0
   21.5700   18.0494   22.8464 H   0  0  0  0  0  0  0  0  0  0  0  0
   21.3788   19.5741   23.6864 H   0  0  0  0  0  0  0  0  0  0  0  0
   20.9712   19.6888   21.5612 C   0  0  0  0  0  0  0  0  0  0  0  0
   20.3743   20.6083   21.6114 H   0  0  0  0  0  0  0  0  0  0  0  0
   22.0058   20.0090   21.3767 H   0  0  0  0  0  0  0  0  0  0  0  0
   20.5014   18.8316   20.3657 C   0  0  0  0  0  0  0  0  0  0  0  0
   19.4322   18.5964   20.4376 H   0  0  0  0  0  0  0  0  0  0  0  0
   20.6590   19.3702   19.4224 H   0  0  0  0  0  0  0  0  0  0  0  0
   21.0604   17.8883   20.3140 H   0  0  0  0  0  0  0  0  0  0  0  0
  1  2  1  0  0  0  0
  1  3  2  0  0  0  0
  1  4  1  0  0  0  0
  4  5  1  0  0  0  0
  4  6  1  0  0  0  0
  4  7  1  0  0  0  0
  7  8  1  0  0  0  0
  7  9  1  0  0  0  0
  7 10  1  0  0  0  0
 10 11  1  0  0  0  0
 10 12  1  0  0  0  0
 10 13  1  0  0  0  0
 13 14  1  0  0  0  0
 13 15  1  0  0  0  0
 13 16  1  0  0  0  0
 16 17  1  0  0  0  0
 16 18  1  0  0  0  0
 16 19  1  0  0  0  0
 19 20  1  0  0  0  0
 19 21  1  0  0  0  0
 19 22  1  0  0  0  0
 22 23  1  0  0  0  0
 22 24  1  0  0  0  0
 22 25  1  0  0  0  0
M  END
> <VM2 Rank>
195

> <Conf_Id>
442

> <Probability>
0.00

> <Sum Probability>
100.00

> <Delta G>
9.767

> <G>
1.805

> <E>
-23.717

> <-TS>
25.522

> <U+W>
-44.285

> <U>
16.438

> <W>
-60.723

> <W(PB)>
-63.069

> <W(SA)>
2.346

> <Valence>
13.852

> <Coulomb>
1.849

> <VdW>
0.737

> <VdW6>
-12.634

> <VdW12>
13.371

> <Bond>
0.340

> <Angle>
4.369

> <Pdih>
9.126

> <Idih>
0.017

> <Tether>
0.000

$$$$
