@<TRIPOS>MOLECULE
guest-8_vm2.mol2 : vm2 ligand conformer 1
          25          24           1
SMALL
USER_CHARGES
 
@<TRIPOS>ATOM
       1    C1      20.160093   19.340144   27.808437 C.2        1 MOL1         0.6168
       2    O1      21.215706   19.704989   28.287176 O.co2      1 MOL1        -0.6703
       3    O2      19.077743   19.569007   28.311191 O.co2      1 MOL1        -0.6703
       4    C2      20.194138   18.572403   26.491816 C.3        1 MOL1        -0.1963
       5    H1      19.354716   17.866745   26.487218 H          1 MOL1         0.0750
       6    H2      21.116370   17.979547   26.466963 H          1 MOL1         0.0750
       7    C3      20.120555   19.499060   25.253305 C.3        1 MOL1        -0.1860
       8    H3      19.198437   20.094955   25.300219 H          1 MOL1         0.0752
       9    H4      20.959971   20.207765   25.279946 H          1 MOL1         0.0752
      10    C4      20.156617   18.698625   23.933449 C.3        1 MOL1        -0.1858
      11    H5      19.317089   17.990213   23.910574 H          1 MOL1         0.0752
      12    H6      21.079011   18.103228   23.890161 H          1 MOL1         0.0752
      13    C5      20.082898   19.624965   22.700598 C.3        1 MOL1        -0.1858
      14    H7      19.160571   20.220414   22.743675 H          1 MOL1         0.0752
      15    H8      20.922349   20.333425   22.723226 H          1 MOL1         0.0752
      16    C6      20.118870   18.825210   21.380380 C.3        1 MOL1        -0.1858
      17    H9      19.279514   18.116654   21.357444 H          1 MOL1         0.0752
      18    H10     21.041150   18.229718   21.336953 H          1 MOL1         0.0752
      19    C7      20.045114   19.750974   20.147951 C.3        1 MOL1        -0.1834
      20    H11     19.122762   20.346989   20.186975 H          1 MOL1         0.0752
      21    H12     20.884390   20.460031   20.166460 H          1 MOL1         0.0752
      22    C8      20.081265   18.948622   18.831696 C.3        1 MOL1        -0.2849
      23    H13     19.234002   18.252907   18.772332 H          1 MOL1         0.0764
      24    H14     20.027959   19.622106   17.966442 H          1 MOL1         0.0764
      25    H15     21.008887   18.366808   18.751644 H          1 MOL1         0.0764
@<TRIPOS>BOND
    1     1     2    1
    2     1     3    2
    3     1     4    1
    4     4     5    1
    5     4     6    1
    6     4     7    1
    7     7     8    1
    8     7     9    1
    9     7    10    1
   10    10    11    1
   11    10    12    1
   12    10    13    1
   13    13    14    1
   14    13    15    1
   15    13    16    1
   16    16    17    1
   17    16    18    1
   18    16    19    1
   19    19    20    1
   20    19    21    1
   21    19    22    1
   22    22    23    1
   23    22    24    1
   24    22    25    1
@<TRIPOS>SUBSTRUCTURE
       1 MOL1            1 RESIDUE      1      MOL     
@<SCITEGIC>MOL_PROPERTY
VM2 Rank
SciTegic.value.IntegerValue
1

@<SCITEGIC>MOL_PROPERTY
Conf_Id
SciTegic.value.IntegerValue
348

@<SCITEGIC>MOL_PROPERTY
Probability
SciTegic.value.DoubleValue
23.52

@<SCITEGIC>MOL_PROPERTY
Sum Probability
SciTegic.value.DoubleValue
23.52

@<SCITEGIC>MOL_PROPERTY
Delta G
SciTegic.value.DoubleValue
0.000

@<SCITEGIC>MOL_PROPERTY
G
SciTegic.value.DoubleValue
-7.962

@<SCITEGIC>MOL_PROPERTY
E
SciTegic.value.DoubleValue
-32.361

@<SCITEGIC>MOL_PROPERTY
-TS
SciTegic.value.DoubleValue
24.399

@<SCITEGIC>MOL_PROPERTY
U+W
SciTegic.value.DoubleValue
-52.928

@<SCITEGIC>MOL_PROPERTY
U
SciTegic.value.DoubleValue
5.617

@<SCITEGIC>MOL_PROPERTY
W
SciTegic.value.DoubleValue
-58.544

@<SCITEGIC>MOL_PROPERTY
W(PB)
SciTegic.value.DoubleValue
-61.064

@<SCITEGIC>MOL_PROPERTY
W(SA)
SciTegic.value.DoubleValue
2.520

@<SCITEGIC>MOL_PROPERTY
Valence
SciTegic.value.DoubleValue
7.531

@<SCITEGIC>MOL_PROPERTY
Coulomb
SciTegic.value.DoubleValue
-2.818

@<SCITEGIC>MOL_PROPERTY
VdW
SciTegic.value.DoubleValue
0.904

@<SCITEGIC>MOL_PROPERTY
VdW6
SciTegic.value.DoubleValue
-7.640

@<SCITEGIC>MOL_PROPERTY
VdW12
SciTegic.value.DoubleValue
8.544

@<SCITEGIC>MOL_PROPERTY
Bond
SciTegic.value.DoubleValue
0.115

@<SCITEGIC>MOL_PROPERTY
Angle
SciTegic.value.DoubleValue
2.271

@<SCITEGIC>MOL_PROPERTY
Pdih
SciTegic.value.DoubleValue
5.144

@<SCITEGIC>MOL_PROPERTY
Idih
SciTegic.value.DoubleValue
0.001

@<SCITEGIC>MOL_PROPERTY
Tether
SciTegic.value.DoubleValue
0.000

@<TRIPOS>MOLECULE
guest-8_vm2.mol2 : vm2 ligand conformer 2
          25          24           1
SMALL
USER_CHARGES
 
@<TRIPOS>ATOM
       1    C1      19.860621   19.163739   27.540705 C.2        1 MOL1         0.6168
       2    O1      20.674052   18.786567   28.360946 O.co2      1 MOL1        -0.6703
       3    O2      18.868439   19.806158   27.822769 O.co2      1 MOL1        -0.6703
       4    C2      20.111392   18.833035   26.073808 C.3        1 MOL1        -0.1963
       5    H1      19.136735   18.697066   25.591862 H          1 MOL1         0.0750
       6    H2      20.635309   17.870914   26.026864 H          1 MOL1         0.0750
       7    C3      20.934438   19.926888   25.344987 C.3        1 MOL1        -0.1860
       8    H3      20.378832   20.874750   25.359448 H          1 MOL1         0.0752
       9    H4      21.862289   20.102889   25.906753 H          1 MOL1         0.0752
      10    C4      21.299906   19.557120   23.887728 C.3        1 MOL1        -0.1858
      11    H5      21.864503   18.614712   23.877762 H          1 MOL1         0.0752
      12    H6      21.975013   20.327987   23.491505 H          1 MOL1         0.0752
      13    C5      20.071044   19.438345   22.956910 C.3        1 MOL1        -0.1858
      14    H7      19.421241   18.621350   23.296303 H          1 MOL1         0.0752
      15    H8      19.479728   20.362696   23.009894 H          1 MOL1         0.0752
      16    C6      20.487551   19.176527   21.493303 C.3        1 MOL1        -0.1858
      17    H9      21.082313   18.254261   21.440681 H          1 MOL1         0.0752
      18    H10     21.133024   19.993667   21.143019 H          1 MOL1         0.0752
      19    C7      19.262730   19.053421   20.562641 C.3        1 MOL1        -0.1834
      20    H11     18.615537   18.235367   20.908186 H          1 MOL1         0.0752
      21    H12     18.666140   19.974914   20.611723 H          1 MOL1         0.0752
      22    C8      19.682826   18.792200   19.102202 C.3        1 MOL1        -0.2849
      23    H13     20.254947   17.858847   19.019004 H          1 MOL1         0.0764
      24    H14     18.800224   18.707493   18.454963 H          1 MOL1         0.0764
      25    H15     20.305894   19.611476   18.720152 H          1 MOL1         0.0764
@<TRIPOS>BOND
    1     1     2    1
    2     1     3    2
    3     1     4    1
    4     4     5    1
    5     4     6    1
    6     4     7    1
    7     7     8    1
    8     7     9    1
    9     7    10    1
   10    10    11    1
   11    10    12    1
   12    10    13    1
   13    13    14    1
   14    13    15    1
   15    13    16    1
   16    16    17    1
   17    16    18    1
   18    16    19    1
   19    19    20    1
   20    19    21    1
   21    19    22    1
   22    22    23    1
   23    22    24    1
   24    22    25    1
@<TRIPOS>SUBSTRUCTURE
       1 MOL1            1 RESIDUE      1      MOL     
@<SCITEGIC>MOL_PROPERTY
VM2 Rank
SciTegic.value.IntegerValue
2

@<SCITEGIC>MOL_PROPERTY
Conf_Id
SciTegic.value.IntegerValue
821

@<SCITEGIC>MOL_PROPERTY
Probability
SciTegic.value.DoubleValue
5.75

@<SCITEGIC>MOL_PROPERTY
Sum Probability
SciTegic.value.DoubleValue
29.27

@<SCITEGIC>MOL_PROPERTY
Delta G
SciTegic.value.DoubleValue
0.840

@<SCITEGIC>MOL_PROPERTY
G
SciTegic.value.DoubleValue
-7.123

@<SCITEGIC>MOL_PROPERTY
E
SciTegic.value.DoubleValue
-31.631

@<SCITEGIC>MOL_PROPERTY
-TS
SciTegic.value.DoubleValue
24.509

@<SCITEGIC>MOL_PROPERTY
U+W
SciTegic.value.DoubleValue
-52.199

@<SCITEGIC>MOL_PROPERTY
U
SciTegic.value.DoubleValue
6.575

@<SCITEGIC>MOL_PROPERTY
W
SciTegic.value.DoubleValue
-58.774

@<SCITEGIC>MOL_PROPERTY
W(PB)
SciTegic.value.DoubleValue
-61.317

@<SCITEGIC>MOL_PROPERTY
W(SA)
SciTegic.value.DoubleValue
2.543

@<SCITEGIC>MOL_PROPERTY
Valence
SciTegic.value.DoubleValue
8.051

@<SCITEGIC>MOL_PROPERTY
Coulomb
SciTegic.value.DoubleValue
-2.490

@<SCITEGIC>MOL_PROPERTY
VdW
SciTegic.value.DoubleValue
1.015

@<SCITEGIC>MOL_PROPERTY
VdW6
SciTegic.value.DoubleValue
-8.339

@<SCITEGIC>MOL_PROPERTY
VdW12
SciTegic.value.DoubleValue
9.354

@<SCITEGIC>MOL_PROPERTY
Bond
SciTegic.value.DoubleValue
0.157

@<SCITEGIC>MOL_PROPERTY
Angle
SciTegic.value.DoubleValue
2.513

@<SCITEGIC>MOL_PROPERTY
Pdih
SciTegic.value.DoubleValue
5.379

@<SCITEGIC>MOL_PROPERTY
Idih
SciTegic.value.DoubleValue
0.001

@<SCITEGIC>MOL_PROPERTY
Tether
SciTegic.value.DoubleValue
0.000

@<TRIPOS>MOLECULE
guest-8_vm2.mol2 : vm2 ligand conformer 3
          25          24           1
SMALL
USER_CHARGES
 
@<TRIPOS>ATOM
       1    C1      20.131480   19.707485   27.520773 C.2        1 MOL1         0.6168
       2    O1      20.946439   19.333384   28.340905 O.co2      1 MOL1        -0.6703
       3    O2      19.029293   20.129040   27.810886 O.co2      1 MOL1        -0.6703
       4    C2      20.503493   19.620102   26.044966 C.3        1 MOL1        -0.1963
       5    H1      21.585103   19.777437   25.957019 H          1 MOL1         0.0750
       6    H2      20.010363   20.450689   25.527605 H          1 MOL1         0.0750
       7    C3      20.106076   18.264098   25.405887 C.3        1 MOL1        -0.1860
       8    H3      20.541389   17.451466   26.003882 H          1 MOL1         0.0752
       9    H4      19.015785   18.138701   25.459637 H          1 MOL1         0.0752
      10    C4      20.578681   18.109323   23.940763 C.3        1 MOL1        -0.1858
      11    H5      20.359383   17.084775   23.610299 H          1 MOL1         0.0752
      12    H6      21.670169   18.224580   23.892076 H          1 MOL1         0.0752
      13    C5      19.905493   19.105962   22.969084 C.3        1 MOL1        -0.1858
      14    H7      18.813554   19.025375   23.058857 H          1 MOL1         0.0752
      15    H8      20.175164   20.134702   23.240893 H          1 MOL1         0.0752
      16    C6      20.322586   18.845337   21.505432 C.3        1 MOL1        -0.1858
      17    H9      20.049793   17.819355   21.222597 H          1 MOL1         0.0752
      18    H10     21.414955   18.921872   21.416244 H          1 MOL1         0.0752
      19    C7      19.655355   19.841475   20.533843 C.3        1 MOL1        -0.1834
      20    H11     18.562397   19.766722   20.619476 H          1 MOL1         0.0752
      21    H12     19.927779   20.869090   20.811814 H          1 MOL1         0.0752
      22    C8      20.074101   19.577793   19.073460 C.3        1 MOL1        -0.2849
      23    H13     19.590833   20.294633   18.396945 H          1 MOL1         0.0764
      24    H14     21.160778   19.677117   18.952381 H          1 MOL1         0.0764
      25    H15     19.785027   18.566574   18.758403 H          1 MOL1         0.0764
@<TRIPOS>BOND
    1     1     2    1
    2     1     3    2
    3     1     4    1
    4     4     5    1
    5     4     6    1
    6     4     7    1
    7     7     8    1
    8     7     9    1
    9     7    10    1
   10    10    11    1
   11    10    12    1
   12    10    13    1
   13    13    14    1
   14    13    15    1
   15    13    16    1
   16    16    17    1
   17    16    18    1
   18    16    19    1
   19    19    20    1
   20    19    21    1
   21    19    22    1
   22    22    23    1
   23    22    24    1
   24    22    25    1
@<TRIPOS>SUBSTRUCTURE
       1 MOL1            1 RESIDUE      1      MOL     
@<SCITEGIC>MOL_PROPERTY
VM2 Rank
SciTegic.value.IntegerValue
3

@<SCITEGIC>MOL_PROPERTY
Conf_Id
SciTegic.value.IntegerValue
832

@<SCITEGIC>MOL_PROPERTY
Probability
SciTegic.value.DoubleValue
5.57

@<SCITEGIC>MOL_PROPERTY
Sum Probability
SciTegic.value.DoubleValue
34.84

@<SCITEGIC>MOL_PROPERTY
Delta G
SciTegic.value.DoubleValue
0.859

@<SCITEGIC>MOL_PROPERTY
G
SciTegic.value.DoubleValue
-7.104

@<SCITEGIC>MOL_PROPERTY
E
SciTegic.value.DoubleValue
-31.612

@<SCITEGIC>MOL_PROPERTY
-TS
SciTegic.value.DoubleValue
24.508

@<SCITEGIC>MOL_PROPERTY
U+W
SciTegic.value.DoubleValue
-52.180

@<SCITEGIC>MOL_PROPERTY
U
SciTegic.value.DoubleValue
6.575

@<SCITEGIC>MOL_PROPERTY
W
SciTegic.value.DoubleValue
-58.755

@<SCITEGIC>MOL_PROPERTY
W(PB)
SciTegic.value.DoubleValue
-61.293

@<SCITEGIC>MOL_PROPERTY
W(SA)
SciTegic.value.DoubleValue
2.538

@<SCITEGIC>MOL_PROPERTY
Valence
SciTegic.value.DoubleValue
8.050

@<SCITEGIC>MOL_PROPERTY
Coulomb
SciTegic.value.DoubleValue
-2.490

@<SCITEGIC>MOL_PROPERTY
VdW
SciTegic.value.DoubleValue
1.015

@<SCITEGIC>MOL_PROPERTY
VdW6
SciTegic.value.DoubleValue
-8.339

@<SCITEGIC>MOL_PROPERTY
VdW12
SciTegic.value.DoubleValue
9.354

@<SCITEGIC>MOL_PROPERTY
Bond
SciTegic.value.DoubleValue
0.157

@<SCITEGIC>MOL_PROPERTY
Angle
SciTegic.value.DoubleValue
2.513

@<SCITEGIC>MOL_PROPERTY
Pdih
SciTegic.value.DoubleValue
5.379

@<SCITEGIC>MOL_PROPERTY
Idih
SciTegic.value.DoubleValue
0.001

@<SCITEGIC>MOL_PROPERTY
Tether
SciTegic.value.DoubleValue
0.000

@<TRIPOS>MOLECULE
guest-8_vm2.mol2 : vm2 ligand conformer 4
          25          24           1
SMALL
USER_CHARGES
 
@<TRIPOS>ATOM
       1    C1      20.130425   19.167828   27.705065 C.2        1 MOL1         0.6168
       2    O1      21.227633   19.243432   28.221836 O.co2      1 MOL1        -0.6703
       3    O2      19.227096   18.481161   28.139937 O.co2      1 MOL1        -0.6703
       4    C2      19.880672   19.960609   26.427093 C.3        1 MOL1        -0.1963
       5    H1      20.473053   20.882145   26.476648 H          1 MOL1         0.0750
       6    H2      18.824333   20.254616   26.409603 H          1 MOL1         0.0750
       7    C3      20.235536   19.164995   25.146824 C.3        1 MOL1        -0.1860
       8    H3      21.292515   18.866938   25.185979 H          1 MOL1         0.0752
       9    H4      19.643973   18.239319   25.119188 H          1 MOL1         0.0752
      10    C4      19.973946   19.988427   23.867111 C.3        1 MOL1        -0.1858
      11    H5      20.565499   20.913719   23.898972 H          1 MOL1         0.0752
      12    H6      18.916743   20.285384   23.831111 H          1 MOL1         0.0752
      13    C5      20.328715   19.192736   22.592374 C.3        1 MOL1        -0.1858
      14    H7      21.386576   18.898496   22.626109 H          1 MOL1         0.0752
      15    H8      19.738594   18.267337   22.570232 H          1 MOL1         0.0752
      16    C6      20.062700   20.017254   21.311654 C.3        1 MOL1        -0.1858
      17    H9      20.604300   20.970516   21.381434 H          1 MOL1         0.0752
      18    H10     18.995364   20.269792   21.248994 H          1 MOL1         0.0752
      19    C7      20.500790   19.297598   20.014829 C.3        1 MOL1        -0.1834
      20    H11     20.387920   19.992175   19.170988 H          1 MOL1         0.0752
      21    H12     21.569648   19.049235   20.071227 H          1 MOL1         0.0752
      22    C8      19.685487   18.019959   19.719275 C.3        1 MOL1        -0.2849
      23    H13     18.610134   18.238485   19.687884 H          1 MOL1         0.0764
      24    H14     19.972920   17.597421   18.747804 H          1 MOL1         0.0764
      25    H15     19.858455   17.249105   20.480572 H          1 MOL1         0.0764
@<TRIPOS>BOND
    1     1     2    1
    2     1     3    2
    3     1     4    1
    4     4     5    1
    5     4     6    1
    6     4     7    1
    7     7     8    1
    8     7     9    1
    9     7    10    1
   10    10    11    1
   11    10    12    1
   12    10    13    1
   13    13    14    1
   14    13    15    1
   15    13    16    1
   16    16    17    1
   17    16    18    1
   18    16    19    1
   19    19    20    1
   20    19    21    1
   21    19    22    1
   22    22    23    1
   23    22    24    1
   24    22    25    1
@<TRIPOS>SUBSTRUCTURE
       1 MOL1            1 RESIDUE      1      MOL     
@<SCITEGIC>MOL_PROPERTY
VM2 Rank
SciTegic.value.IntegerValue
4

@<SCITEGIC>MOL_PROPERTY
Conf_Id
SciTegic.value.IntegerValue
484

@<SCITEGIC>MOL_PROPERTY
Probability
SciTegic.value.DoubleValue
5.13

@<SCITEGIC>MOL_PROPERTY
Sum Probability
SciTegic.value.DoubleValue
39.97

@<SCITEGIC>MOL_PROPERTY
Delta G
SciTegic.value.DoubleValue
0.908

@<SCITEGIC>MOL_PROPERTY
G
SciTegic.value.DoubleValue
-7.055

@<SCITEGIC>MOL_PROPERTY
E
SciTegic.value.DoubleValue
-31.563

@<SCITEGIC>MOL_PROPERTY
-TS
SciTegic.value.DoubleValue
24.508

@<SCITEGIC>MOL_PROPERTY
U+W
SciTegic.value.DoubleValue
-52.130

@<SCITEGIC>MOL_PROPERTY
U
SciTegic.value.DoubleValue
6.630

@<SCITEGIC>MOL_PROPERTY
W
SciTegic.value.DoubleValue
-58.760

@<SCITEGIC>MOL_PROPERTY
W(PB)
SciTegic.value.DoubleValue
-61.281

@<SCITEGIC>MOL_PROPERTY
W(SA)
SciTegic.value.DoubleValue
2.521

@<SCITEGIC>MOL_PROPERTY
Valence
SciTegic.value.DoubleValue
8.032

@<SCITEGIC>MOL_PROPERTY
Coulomb
SciTegic.value.DoubleValue
-2.441

@<SCITEGIC>MOL_PROPERTY
VdW
SciTegic.value.DoubleValue
1.039

@<SCITEGIC>MOL_PROPERTY
VdW6
SciTegic.value.DoubleValue
-8.257

@<SCITEGIC>MOL_PROPERTY
VdW12
SciTegic.value.DoubleValue
9.295

@<SCITEGIC>MOL_PROPERTY
Bond
SciTegic.value.DoubleValue
0.146

@<SCITEGIC>MOL_PROPERTY
Angle
SciTegic.value.DoubleValue
2.498

@<SCITEGIC>MOL_PROPERTY
Pdih
SciTegic.value.DoubleValue
5.387

@<SCITEGIC>MOL_PROPERTY
Idih
SciTegic.value.DoubleValue
0.001

@<SCITEGIC>MOL_PROPERTY
Tether
SciTegic.value.DoubleValue
0.000

@<TRIPOS>MOLECULE
guest-8_vm2.mol2 : vm2 ligand conformer 5
          25          24           1
SMALL
USER_CHARGES
 
@<TRIPOS>ATOM
       1    C1      20.021410   19.170567   27.669819 C.2        1 MOL1         0.6168
       2    O1      21.060293   19.268598   28.292518 O.co2      1 MOL1        -0.6703
       3    O2      18.940793   19.517658   28.103903 O.co2      1 MOL1        -0.6703
       4    C2      20.080230   18.601103   26.256904 C.3        1 MOL1        -0.1963
       5    H1      19.142004   18.066467   26.065869 H          1 MOL1         0.0750
       6    H2      20.888426   17.860733   26.221371 H          1 MOL1         0.0750
       7    C3      20.304565   19.689665   25.178556 C.3        1 MOL1        -0.1860
       8    H3      19.494298   20.429777   25.235826 H          1 MOL1         0.0752
       9    H4      21.240616   20.224155   25.392260 H          1 MOL1         0.0752
      10    C4      20.360174   19.088298   23.757404 C.3        1 MOL1        -0.1858
      11    H5      19.424068   18.550671   23.558281 H          1 MOL1         0.0752
      12    H6      21.172626   18.350857   23.702520 H          1 MOL1         0.0752
      13    C5      20.580112   20.179686   22.684496 C.3        1 MOL1        -0.1858
      14    H7      19.741427   20.889107   22.700138 H          1 MOL1         0.0752
      15    H8      21.479338   20.756210   22.941234 H          1 MOL1         0.0752
      16    C6      20.753104   19.613847   21.254782 C.3        1 MOL1        -0.1858
      17    H9      21.594473   18.907651   21.237818 H          1 MOL1         0.0752
      18    H10     21.027774   20.439945   20.584692 H          1 MOL1         0.0752
      19    C7      19.483232   18.924591   20.706230 C.3        1 MOL1        -0.1834
      20    H11     19.235494   18.046479   21.316874 H          1 MOL1         0.0752
      21    H12     18.629602   19.613117   20.773017 H          1 MOL1         0.0752
      22    C8      19.669087   18.479987   19.241387 C.3        1 MOL1        -0.2849
      23    H13     20.500313   17.768633   19.149659 H          1 MOL1         0.0764
      24    H14     18.760694   17.989792   18.867767 H          1 MOL1         0.0764
      25    H15     19.880713   19.340302   18.592989 H          1 MOL1         0.0764
@<TRIPOS>BOND
    1     1     2    1
    2     1     3    2
    3     1     4    1
    4     4     5    1
    5     4     6    1
    6     4     7    1
    7     7     8    1
    8     7     9    1
    9     7    10    1
   10    10    11    1
   11    10    12    1
   12    10    13    1
   13    13    14    1
   14    13    15    1
   15    13    16    1
   16    16    17    1
   17    16    18    1
   18    16    19    1
   19    19    20    1
   20    19    21    1
   21    19    22    1
   22    22    23    1
   23    22    24    1
   24    22    25    1
@<TRIPOS>SUBSTRUCTURE
       1 MOL1            1 RESIDUE      1      MOL     
@<SCITEGIC>MOL_PROPERTY
VM2 Rank
SciTegic.value.IntegerValue
5

@<SCITEGIC>MOL_PROPERTY
Conf_Id
SciTegic.value.IntegerValue
1009

@<SCITEGIC>MOL_PROPERTY
Probability
SciTegic.value.DoubleValue
5.04

@<SCITEGIC>MOL_PROPERTY
Sum Probability
SciTegic.value.DoubleValue
45.01

@<SCITEGIC>MOL_PROPERTY
Delta G
SciTegic.value.DoubleValue
0.918

@<SCITEGIC>MOL_PROPERTY
G
SciTegic.value.DoubleValue
-7.044

@<SCITEGIC>MOL_PROPERTY
E
SciTegic.value.DoubleValue
-31.544

@<SCITEGIC>MOL_PROPERTY
-TS
SciTegic.value.DoubleValue
24.499

@<SCITEGIC>MOL_PROPERTY
U+W
SciTegic.value.DoubleValue
-52.111

@<SCITEGIC>MOL_PROPERTY
U
SciTegic.value.DoubleValue
6.583

@<SCITEGIC>MOL_PROPERTY
W
SciTegic.value.DoubleValue
-58.695

@<SCITEGIC>MOL_PROPERTY
W(PB)
SciTegic.value.DoubleValue
-61.197

@<SCITEGIC>MOL_PROPERTY
W(SA)
SciTegic.value.DoubleValue
2.502

@<SCITEGIC>MOL_PROPERTY
Valence
SciTegic.value.DoubleValue
8.068

@<SCITEGIC>MOL_PROPERTY
Coulomb
SciTegic.value.DoubleValue
-2.516

@<SCITEGIC>MOL_PROPERTY
VdW
SciTegic.value.DoubleValue
1.031

@<SCITEGIC>MOL_PROPERTY
VdW6
SciTegic.value.DoubleValue
-8.305

@<SCITEGIC>MOL_PROPERTY
VdW12
SciTegic.value.DoubleValue
9.335

@<SCITEGIC>MOL_PROPERTY
Bond
SciTegic.value.DoubleValue
0.150

@<SCITEGIC>MOL_PROPERTY
Angle
SciTegic.value.DoubleValue
2.522

@<SCITEGIC>MOL_PROPERTY
Pdih
SciTegic.value.DoubleValue
5.396

@<SCITEGIC>MOL_PROPERTY
Idih
SciTegic.value.DoubleValue
0.001

@<SCITEGIC>MOL_PROPERTY
Tether
SciTegic.value.DoubleValue
0.000

@<TRIPOS>MOLECULE
guest-8_vm2.mol2 : vm2 ligand conformer 6
          25          24           1
SMALL
USER_CHARGES
 
@<TRIPOS>ATOM
       1    C1      20.373757   19.642735   27.443297 C.2        1 MOL1         0.6168
       2    O1      21.515287   20.032149   27.591298 O.co2      1 MOL1        -0.6703
       3    O2      19.421116   20.108263   28.036951 O.co2      1 MOL1        -0.6703
       4    C2      20.119810   18.521830   26.441660 C.3        1 MOL1        -0.1963
       5    H1      19.273653   17.926218   26.804723 H          1 MOL1         0.0750
       6    H2      20.998734   17.866063   26.434100 H          1 MOL1         0.0750
       7    C3      19.832090   19.045923   25.013103 C.3        1 MOL1        -0.1860
       8    H3      18.955419   19.707796   25.039340 H          1 MOL1         0.0752
       9    H4      20.683261   19.654690   24.680818 H          1 MOL1         0.0752
      10    C4      19.583064   17.889320   24.017377 C.3        1 MOL1        -0.1858
      11    H5      18.780208   17.248944   24.407638 H          1 MOL1         0.0752
      12    H6      20.479641   17.257885   23.950790 H          1 MOL1         0.0752
      13    C5      19.182030   18.369748   22.602412 C.3        1 MOL1        -0.1858
      14    H7      18.905206   17.491910   22.002694 H          1 MOL1         0.0752
      15    H8      18.282574   18.997101   22.668148 H          1 MOL1         0.0752
      16    C6      20.304618   19.142798   21.872106 C.3        1 MOL1        -0.1858
      17    H9      21.219165   18.534379   21.856236 H          1 MOL1         0.0752
      18    H10     20.541773   20.064754   22.418627 H          1 MOL1         0.0752
      19    C7      19.901242   19.503530   20.426799 C.3        1 MOL1        -0.1834
      20    H11     19.669401   18.587089   19.866607 H          1 MOL1         0.0752
      21    H12     18.985492   20.110758   20.438819 H          1 MOL1         0.0752
      22    C8      21.019986   20.277705   19.700996 C.3        1 MOL1        -0.2849
      23    H13     21.939734   19.680572   19.647386 H          1 MOL1         0.0764
      24    H14     20.716533   20.525528   18.675539 H          1 MOL1         0.0764
      25    H15     21.250361   21.216035   20.222392 H          1 MOL1         0.0764
@<TRIPOS>BOND
    1     1     2    1
    2     1     3    2
    3     1     4    1
    4     4     5    1
    5     4     6    1
    6     4     7    1
    7     7     8    1
    8     7     9    1
    9     7    10    1
   10    10    11    1
   11    10    12    1
   12    10    13    1
   13    13    14    1
   14    13    15    1
   15    13    16    1
   16    16    17    1
   17    16    18    1
   18    16    19    1
   19    19    20    1
   20    19    21    1
   21    19    22    1
   22    22    23    1
   23    22    24    1
   24    22    25    1
@<TRIPOS>SUBSTRUCTURE
       1 MOL1            1 RESIDUE      1      MOL     
@<SCITEGIC>MOL_PROPERTY
VM2 Rank
SciTegic.value.IntegerValue
6

@<SCITEGIC>MOL_PROPERTY
Conf_Id
SciTegic.value.IntegerValue
1085

@<SCITEGIC>MOL_PROPERTY
Probability
SciTegic.value.DoubleValue
4.98

@<SCITEGIC>MOL_PROPERTY
Sum Probability
SciTegic.value.DoubleValue
49.99

@<SCITEGIC>MOL_PROPERTY
Delta G
SciTegic.value.DoubleValue
0.926

@<SCITEGIC>MOL_PROPERTY
G
SciTegic.value.DoubleValue
-7.037

@<SCITEGIC>MOL_PROPERTY
E
SciTegic.value.DoubleValue
-31.542

@<SCITEGIC>MOL_PROPERTY
-TS
SciTegic.value.DoubleValue
24.506

@<SCITEGIC>MOL_PROPERTY
U+W
SciTegic.value.DoubleValue
-52.110

@<SCITEGIC>MOL_PROPERTY
U
SciTegic.value.DoubleValue
7.044

@<SCITEGIC>MOL_PROPERTY
W
SciTegic.value.DoubleValue
-59.154

@<SCITEGIC>MOL_PROPERTY
W(PB)
SciTegic.value.DoubleValue
-61.665

@<SCITEGIC>MOL_PROPERTY
W(SA)
SciTegic.value.DoubleValue
2.511

@<SCITEGIC>MOL_PROPERTY
Valence
SciTegic.value.DoubleValue
8.064

@<SCITEGIC>MOL_PROPERTY
Coulomb
SciTegic.value.DoubleValue
-2.027

@<SCITEGIC>MOL_PROPERTY
VdW
SciTegic.value.DoubleValue
1.007

@<SCITEGIC>MOL_PROPERTY
VdW6
SciTegic.value.DoubleValue
-8.345

@<SCITEGIC>MOL_PROPERTY
VdW12
SciTegic.value.DoubleValue
9.352

@<SCITEGIC>MOL_PROPERTY
Bond
SciTegic.value.DoubleValue
0.151

@<SCITEGIC>MOL_PROPERTY
Angle
SciTegic.value.DoubleValue
2.518

@<SCITEGIC>MOL_PROPERTY
Pdih
SciTegic.value.DoubleValue
5.395

@<SCITEGIC>MOL_PROPERTY
Idih
SciTegic.value.DoubleValue
0.001

@<SCITEGIC>MOL_PROPERTY
Tether
SciTegic.value.DoubleValue
0.000

@<TRIPOS>MOLECULE
guest-8_vm2.mol2 : vm2 ligand conformer 7
          25          24           1
SMALL
USER_CHARGES
 
@<TRIPOS>ATOM
       1    C1      20.315825   19.189193   27.666445 C.2        1 MOL1         0.6168
       2    O1      21.353354   19.671081   28.076265 O.co2      1 MOL1        -0.6703
       3    O2      19.287396   19.155595   28.312855 O.co2      1 MOL1        -0.6703
       4    C2      20.297404   18.614928   26.254370 C.3        1 MOL1        -0.1963
       5    H1      19.588884   17.778113   26.236140 H          1 MOL1         0.0750
       6    H2      21.291184   18.203167   26.041174 H          1 MOL1         0.0750
       7    C3      19.912464   19.664834   25.183089 C.3        1 MOL1        -0.1860
       8    H3      18.921456   20.076886   25.419010 H          1 MOL1         0.0752
       9    H4      20.623669   20.501604   25.222877 H          1 MOL1         0.0752
      10    C4      19.900793   19.059259   23.762683 C.3        1 MOL1        -0.1858
      11    H5      19.187150   18.224856   23.725355 H          1 MOL1         0.0752
      12    H6      20.892587   18.644137   23.541306 H          1 MOL1         0.0752
      13    C5      19.519928   20.112520   22.696750 C.3        1 MOL1        -0.1858
      14    H7      18.561227   20.571146   22.975054 H          1 MOL1         0.0752
      15    H8      20.262361   20.922273   22.694031 H          1 MOL1         0.0752
      16    C6      19.386805   19.527246   21.270596 C.3        1 MOL1        -0.1858
      17    H9      18.994601   20.311044   20.608223 H          1 MOL1         0.0752
      18    H10     18.641191   18.720426   21.272058 H          1 MOL1         0.0752
      19    C7      20.720535   19.003050   20.691861 C.3        1 MOL1        -0.1834
      20    H11     21.481683   19.793973   20.739856 H          1 MOL1         0.0752
      21    H12     21.091241   18.164190   21.295377 H          1 MOL1         0.0752
      22    C8      20.558496   18.536295   19.231086 C.3        1 MOL1        -0.2849
      23    H13     20.224927   19.361990   18.588976 H          1 MOL1         0.0764
      24    H14     21.512651   18.164222   18.835850 H          1 MOL1         0.0764
      25    H15     19.821903   17.725489   19.157618 H          1 MOL1         0.0764
@<TRIPOS>BOND
    1     1     2    1
    2     1     3    2
    3     1     4    1
    4     4     5    1
    5     4     6    1
    6     4     7    1
    7     7     8    1
    8     7     9    1
    9     7    10    1
   10    10    11    1
   11    10    12    1
   12    10    13    1
   13    13    14    1
   14    13    15    1
   15    13    16    1
   16    16    17    1
   17    16    18    1
   18    16    19    1
   19    19    20    1
   20    19    21    1
   21    19    22    1
   22    22    23    1
   23    22    24    1
   24    22    25    1
@<TRIPOS>SUBSTRUCTURE
       1 MOL1            1 RESIDUE      1      MOL     
@<SCITEGIC>MOL_PROPERTY
VM2 Rank
SciTegic.value.IntegerValue
7

@<SCITEGIC>MOL_PROPERTY
Conf_Id
SciTegic.value.IntegerValue
738

@<SCITEGIC>MOL_PROPERTY
Probability
SciTegic.value.DoubleValue
4.77

@<SCITEGIC>MOL_PROPERTY
Sum Probability
SciTegic.value.DoubleValue
54.77

@<SCITEGIC>MOL_PROPERTY
Delta G
SciTegic.value.DoubleValue
0.951

@<SCITEGIC>MOL_PROPERTY
G
SciTegic.value.DoubleValue
-7.012

@<SCITEGIC>MOL_PROPERTY
E
SciTegic.value.DoubleValue
-31.511

@<SCITEGIC>MOL_PROPERTY
-TS
SciTegic.value.DoubleValue
24.499

@<SCITEGIC>MOL_PROPERTY
U+W
SciTegic.value.DoubleValue
-52.078

@<SCITEGIC>MOL_PROPERTY
U
SciTegic.value.DoubleValue
6.583

@<SCITEGIC>MOL_PROPERTY
W
SciTegic.value.DoubleValue
-58.662

@<SCITEGIC>MOL_PROPERTY
W(PB)
SciTegic.value.DoubleValue
-61.145

@<SCITEGIC>MOL_PROPERTY
W(SA)
SciTegic.value.DoubleValue
2.483

@<SCITEGIC>MOL_PROPERTY
Valence
SciTegic.value.DoubleValue
8.068

@<SCITEGIC>MOL_PROPERTY
Coulomb
SciTegic.value.DoubleValue
-2.516

@<SCITEGIC>MOL_PROPERTY
VdW
SciTegic.value.DoubleValue
1.031

@<SCITEGIC>MOL_PROPERTY
VdW6
SciTegic.value.DoubleValue
-8.305

@<SCITEGIC>MOL_PROPERTY
VdW12
SciTegic.value.DoubleValue
9.336

@<SCITEGIC>MOL_PROPERTY
Bond
SciTegic.value.DoubleValue
0.150

@<SCITEGIC>MOL_PROPERTY
Angle
SciTegic.value.DoubleValue
2.522

@<SCITEGIC>MOL_PROPERTY
Pdih
SciTegic.value.DoubleValue
5.396

@<SCITEGIC>MOL_PROPERTY
Idih
SciTegic.value.DoubleValue
0.001

@<SCITEGIC>MOL_PROPERTY
Tether
SciTegic.value.DoubleValue
0.000

@<TRIPOS>MOLECULE
guest-8_vm2.mol2 : vm2 ligand conformer 8
          25          24           1
SMALL
USER_CHARGES
 
@<TRIPOS>ATOM
       1    C1      20.059084   19.446590   27.699961 C.2        1 MOL1         0.6168
       2    O1      21.053173   19.925203   28.209223 O.co2      1 MOL1        -0.6703
       3    O2      18.933271   19.628770   28.119469 O.co2      1 MOL1        -0.6703
       4    C2      20.231962   18.588170   26.452036 C.3        1 MOL1        -0.1963
       5    H1      19.446880   17.822506   26.453845 H          1 MOL1         0.0750
       6    H2      21.193718   18.066749   26.527819 H          1 MOL1         0.0750
       7    C3      20.172189   19.412215   25.142306 C.3        1 MOL1        -0.1860
       8    H3      19.208971   19.938407   25.088283 H          1 MOL1         0.0752
       9    H4      20.955695   20.182478   25.162020 H          1 MOL1         0.0752
      10    C4      20.349450   18.521228   23.893764 C.3        1 MOL1        -0.1858
      11    H5      19.565165   17.751956   23.877134 H          1 MOL1         0.0752
      12    H6      21.312419   17.995481   23.952016 H          1 MOL1         0.0752
      13    C5      20.289578   19.345529   22.589585 C.3        1 MOL1        -0.1858
      14    H7      19.327702   19.872341   22.541008 H          1 MOL1         0.0752
      15    H8      21.075722   20.112701   22.604076 H          1 MOL1         0.0752
      16    C6      20.463582   18.451474   21.340096 C.3        1 MOL1        -0.1858
      17    H9      19.649374   17.715288   21.295369 H          1 MOL1         0.0752
      18    H10     21.395890   17.878591   21.437637 H          1 MOL1         0.0752
      19    C7      20.513455   19.248423   20.015720 C.3        1 MOL1        -0.1834
      20    H11     21.331049   19.981480   20.054326 H          1 MOL1         0.0752
      21    H12     20.755542   18.556715   19.197076 H          1 MOL1         0.0752
      22    C8      19.187256   19.966397   19.683841 C.3        1 MOL1        -0.2849
      23    H13     19.244897   20.441694   18.696075 H          1 MOL1         0.0764
      24    H14     18.349416   19.257219   19.669229 H          1 MOL1         0.0764
      25    H15     18.961939   20.750994   20.416880 H          1 MOL1         0.0764
@<TRIPOS>BOND
    1     1     2    1
    2     1     3    2
    3     1     4    1
    4     4     5    1
    5     4     6    1
    6     4     7    1
    7     7     8    1
    8     7     9    1
    9     7    10    1
   10    10    11    1
   11    10    12    1
   12    10    13    1
   13    13    14    1
   14    13    15    1
   15    13    16    1
   16    16    17    1
   17    16    18    1
   18    16    19    1
   19    19    20    1
   20    19    21    1
   21    19    22    1
   22    22    23    1
   23    22    24    1
   24    22    25    1
@<TRIPOS>SUBSTRUCTURE
       1 MOL1            1 RESIDUE      1      MOL     
@<SCITEGIC>MOL_PROPERTY
VM2 Rank
SciTegic.value.IntegerValue
8

@<SCITEGIC>MOL_PROPERTY
Conf_Id
SciTegic.value.IntegerValue
939

@<SCITEGIC>MOL_PROPERTY
Probability
SciTegic.value.DoubleValue
4.77

@<SCITEGIC>MOL_PROPERTY
Sum Probability
SciTegic.value.DoubleValue
59.53

@<SCITEGIC>MOL_PROPERTY
Delta G
SciTegic.value.DoubleValue
0.951

@<SCITEGIC>MOL_PROPERTY
G
SciTegic.value.DoubleValue
-7.011

@<SCITEGIC>MOL_PROPERTY
E
SciTegic.value.DoubleValue
-31.519

@<SCITEGIC>MOL_PROPERTY
-TS
SciTegic.value.DoubleValue
24.508

@<SCITEGIC>MOL_PROPERTY
U+W
SciTegic.value.DoubleValue
-52.086

@<SCITEGIC>MOL_PROPERTY
U
SciTegic.value.DoubleValue
6.630

@<SCITEGIC>MOL_PROPERTY
W
SciTegic.value.DoubleValue
-58.716

@<SCITEGIC>MOL_PROPERTY
W(PB)
SciTegic.value.DoubleValue
-61.242

@<SCITEGIC>MOL_PROPERTY
W(SA)
SciTegic.value.DoubleValue
2.525

@<SCITEGIC>MOL_PROPERTY
Valence
SciTegic.value.DoubleValue
8.032

@<SCITEGIC>MOL_PROPERTY
Coulomb
SciTegic.value.DoubleValue
-2.441

@<SCITEGIC>MOL_PROPERTY
VdW
SciTegic.value.DoubleValue
1.039

@<SCITEGIC>MOL_PROPERTY
VdW6
SciTegic.value.DoubleValue
-8.256

@<SCITEGIC>MOL_PROPERTY
VdW12
SciTegic.value.DoubleValue
9.295

@<SCITEGIC>MOL_PROPERTY
Bond
SciTegic.value.DoubleValue
0.146

@<SCITEGIC>MOL_PROPERTY
Angle
SciTegic.value.DoubleValue
2.498

@<SCITEGIC>MOL_PROPERTY
Pdih
SciTegic.value.DoubleValue
5.387

@<SCITEGIC>MOL_PROPERTY
Idih
SciTegic.value.DoubleValue
0.001

@<SCITEGIC>MOL_PROPERTY
Tether
SciTegic.value.DoubleValue
0.000

@<TRIPOS>MOLECULE
guest-8_vm2.mol2 : vm2 ligand conformer 9
          25          24           1
SMALL
USER_CHARGES
 
@<TRIPOS>ATOM
       1    C1      20.248080   18.918454   27.457103 C.2        1 MOL1         0.6168
       2    O1      21.192506   18.172761   27.626330 O.co2      1 MOL1        -0.6703
       3    O2      19.198102   18.823173   28.061366 O.co2      1 MOL1        -0.6703
       4    C2      20.380135   20.021720   26.413282 C.3        1 MOL1        -0.1963
       5    H1      21.428507   20.342394   26.387246 H          1 MOL1         0.0750
       6    H2      19.786351   20.880458   26.748755 H          1 MOL1         0.0750
       7    C3      19.923633   19.572978   25.003150 C.3        1 MOL1        -0.1860
       8    H3      20.517950   18.701356   24.698903 H          1 MOL1         0.0752
       9    H4      18.875463   19.246423   25.048102 H          1 MOL1         0.0752
      10    C4      20.072300   20.708462   23.964020 C.3        1 MOL1        -0.1858
      11    H5      21.128710   20.998163   23.879960 H          1 MOL1         0.0752
      12    H6      19.534528   21.595697   24.325378 H          1 MOL1         0.0752
      13    C5      19.523829   20.339519   22.565155 C.3        1 MOL1        -0.1858
      14    H7      18.466084   20.054574   22.648201 H          1 MOL1         0.0752
      15    H8      19.554956   21.236651   21.931846 H          1 MOL1         0.0752
      16    C6      20.315812   19.207314   21.870872 C.3        1 MOL1        -0.1858
      17    H9      20.232147   18.280077   22.452389 H          1 MOL1         0.0752
      18    H10     21.381707   19.471200   21.838453 H          1 MOL1         0.0752
      19    C7      19.805258   18.950671   20.437268 C.3        1 MOL1        -0.1834
      20    H11     18.738622   18.688096   20.465795 H          1 MOL1         0.0752
      21    H12     19.891915   19.870450   19.842351 H          1 MOL1         0.0752
      22    C8      20.593346   17.818947   19.747453 C.3        1 MOL1        -0.2849
      23    H13     20.497690   16.877641   20.304391 H          1 MOL1         0.0764
      24    H14     20.217593   17.650313   18.729890 H          1 MOL1         0.0764
      25    H15     21.660079   18.069153   19.677766 H          1 MOL1         0.0764
@<TRIPOS>BOND
    1     1     2    1
    2     1     3    2
    3     1     4    1
    4     4     5    1
    5     4     6    1
    6     4     7    1
    7     7     8    1
    8     7     9    1
    9     7    10    1
   10    10    11    1
   11    10    12    1
   12    10    13    1
   13    13    14    1
   14    13    15    1
   15    13    16    1
   16    16    17    1
   17    16    18    1
   18    16    19    1
   19    19    20    1
   20    19    21    1
   21    19    22    1
   22    22    23    1
   23    22    24    1
   24    22    25    1
@<TRIPOS>SUBSTRUCTURE
       1 MOL1            1 RESIDUE      1      MOL     
@<SCITEGIC>MOL_PROPERTY
VM2 Rank
SciTegic.value.IntegerValue
9

@<SCITEGIC>MOL_PROPERTY
Conf_Id
SciTegic.value.IntegerValue
757

@<SCITEGIC>MOL_PROPERTY
Probability
SciTegic.value.DoubleValue
4.51

@<SCITEGIC>MOL_PROPERTY
Sum Probability
SciTegic.value.DoubleValue
64.04

@<SCITEGIC>MOL_PROPERTY
Delta G
SciTegic.value.DoubleValue
0.985

@<SCITEGIC>MOL_PROPERTY
G
SciTegic.value.DoubleValue
-6.978

@<SCITEGIC>MOL_PROPERTY
E
SciTegic.value.DoubleValue
-31.483

@<SCITEGIC>MOL_PROPERTY
-TS
SciTegic.value.DoubleValue
24.505

@<SCITEGIC>MOL_PROPERTY
U+W
SciTegic.value.DoubleValue
-52.051

@<SCITEGIC>MOL_PROPERTY
U
SciTegic.value.DoubleValue
7.044

@<SCITEGIC>MOL_PROPERTY
W
SciTegic.value.DoubleValue
-59.095

@<SCITEGIC>MOL_PROPERTY
W(PB)
SciTegic.value.DoubleValue
-61.609

@<SCITEGIC>MOL_PROPERTY
W(SA)
SciTegic.value.DoubleValue
2.514

@<SCITEGIC>MOL_PROPERTY
Valence
SciTegic.value.DoubleValue
8.064

@<SCITEGIC>MOL_PROPERTY
Coulomb
SciTegic.value.DoubleValue
-2.027

@<SCITEGIC>MOL_PROPERTY
VdW
SciTegic.value.DoubleValue
1.007

@<SCITEGIC>MOL_PROPERTY
VdW6
SciTegic.value.DoubleValue
-8.345

@<SCITEGIC>MOL_PROPERTY
VdW12
SciTegic.value.DoubleValue
9.352

@<SCITEGIC>MOL_PROPERTY
Bond
SciTegic.value.DoubleValue
0.151

@<SCITEGIC>MOL_PROPERTY
Angle
SciTegic.value.DoubleValue
2.518

@<SCITEGIC>MOL_PROPERTY
Pdih
SciTegic.value.DoubleValue
5.394

@<SCITEGIC>MOL_PROPERTY
Idih
SciTegic.value.DoubleValue
0.001

@<SCITEGIC>MOL_PROPERTY
Tether
SciTegic.value.DoubleValue
0.000

@<TRIPOS>MOLECULE
guest-8_vm2.mol2 : vm2 ligand conformer 10
          25          24           1
SMALL
USER_CHARGES
 
@<TRIPOS>ATOM
       1    C1      19.939180   19.564755   27.329953 C.2        1 MOL1         0.6168
       2    O1      20.737783   20.365880   27.774368 O.co2      1 MOL1        -0.6703
       3    O2      18.736698   19.740796   27.333614 O.co2      1 MOL1        -0.6703
       4    C2      20.477235   18.259149   26.751290 C.3        1 MOL1        -0.1963
       5    H1      19.660658   17.527704   26.719085 H          1 MOL1         0.0750
       6    H2      21.223153   17.871424   27.455036 H          1 MOL1         0.0750
       7    C3      21.118137   18.408855   25.347091 C.3        1 MOL1        -0.1860
       8    H3      21.915024   19.164403   25.389426 H          1 MOL1         0.0752
       9    H4      21.596883   17.459640   25.070790 H          1 MOL1         0.0752
      10    C4      20.088101   18.794799   24.261809 C.3        1 MOL1        -0.1858
      11    H5      19.617049   19.752734   24.522376 H          1 MOL1         0.0752
      12    H6      19.286791   18.043748   24.232671 H          1 MOL1         0.0752
      13    C5      20.741508   18.907114   22.867510 C.3        1 MOL1        -0.1858
      14    H7      21.542618   19.658382   22.897638 H          1 MOL1         0.0752
      15    H8      21.210632   17.949371   22.603523 H          1 MOL1         0.0752
      16    C6      19.713042   19.293535   21.782712 C.3        1 MOL1        -0.1858
      17    H9      19.243747   20.251262   22.046618 H          1 MOL1         0.0752
      18    H10     18.911653   18.542567   21.752641 H          1 MOL1         0.0752
      19    C7      20.365792   19.406464   20.388965 C.3        1 MOL1        -0.1834
      20    H11     21.166820   20.158239   20.414879 H          1 MOL1         0.0752
      21    H12     20.834647   18.449510   20.120837 H          1 MOL1         0.0752
      22    C8      19.335522   19.792654   19.308687 C.3        1 MOL1        -0.2849
      23    H13     18.873267   20.762327   19.535522 H          1 MOL1         0.0764
      24    H14     19.816471   19.868416   18.324803 H          1 MOL1         0.0764
      25    H15     18.538504   19.040759   19.239326 H          1 MOL1         0.0764
@<TRIPOS>BOND
    1     1     2    1
    2     1     3    2
    3     1     4    1
    4     4     5    1
    5     4     6    1
    6     4     7    1
    7     7     8    1
    8     7     9    1
    9     7    10    1
   10    10    11    1
   11    10    12    1
   12    10    13    1
   13    13    14    1
   14    13    15    1
   15    13    16    1
   16    16    17    1
   17    16    18    1
   18    16    19    1
   19    19    20    1
   20    19    21    1
   21    19    22    1
   22    22    23    1
   23    22    24    1
   24    22    25    1
@<TRIPOS>SUBSTRUCTURE
       1 MOL1            1 RESIDUE      1      MOL     
@<SCITEGIC>MOL_PROPERTY
VM2 Rank
SciTegic.value.IntegerValue
10

@<SCITEGIC>MOL_PROPERTY
Conf_Id
SciTegic.value.IntegerValue
194

@<SCITEGIC>MOL_PROPERTY
Probability
SciTegic.value.DoubleValue
2.32

@<SCITEGIC>MOL_PROPERTY
Sum Probability
SciTegic.value.DoubleValue
66.36

@<SCITEGIC>MOL_PROPERTY
Delta G
SciTegic.value.DoubleValue
1.381

@<SCITEGIC>MOL_PROPERTY
G
SciTegic.value.DoubleValue
-6.581

@<SCITEGIC>MOL_PROPERTY
E
SciTegic.value.DoubleValue
-31.293

@<SCITEGIC>MOL_PROPERTY
-TS
SciTegic.value.DoubleValue
24.711

@<SCITEGIC>MOL_PROPERTY
U+W
SciTegic.value.DoubleValue
-51.860

@<SCITEGIC>MOL_PROPERTY
U
SciTegic.value.DoubleValue
7.816

@<SCITEGIC>MOL_PROPERTY
W
SciTegic.value.DoubleValue
-59.676

@<SCITEGIC>MOL_PROPERTY
W(PB)
SciTegic.value.DoubleValue
-62.181

@<SCITEGIC>MOL_PROPERTY
W(SA)
SciTegic.value.DoubleValue
2.505

@<SCITEGIC>MOL_PROPERTY
Valence
SciTegic.value.DoubleValue
7.785

@<SCITEGIC>MOL_PROPERTY
Coulomb
SciTegic.value.DoubleValue
-0.714

@<SCITEGIC>MOL_PROPERTY
VdW
SciTegic.value.DoubleValue
0.744

@<SCITEGIC>MOL_PROPERTY
VdW6
SciTegic.value.DoubleValue
-8.514

@<SCITEGIC>MOL_PROPERTY
VdW12
SciTegic.value.DoubleValue
9.259

@<SCITEGIC>MOL_PROPERTY
Bond
SciTegic.value.DoubleValue
0.136

@<SCITEGIC>MOL_PROPERTY
Angle
SciTegic.value.DoubleValue
2.433

@<SCITEGIC>MOL_PROPERTY
Pdih
SciTegic.value.DoubleValue
5.216

@<SCITEGIC>MOL_PROPERTY
Idih
SciTegic.value.DoubleValue
0.000

@<SCITEGIC>MOL_PROPERTY
Tether
SciTegic.value.DoubleValue
0.000

@<TRIPOS>MOLECULE
guest-8_vm2.mol2 : vm2 ligand conformer 11
          25          24           1
SMALL
USER_CHARGES
 
@<TRIPOS>ATOM
       1    C1      20.230279   18.954583   27.335179 C.2        1 MOL1         0.6168
       2    O1      21.352718   19.077458   27.784744 O.co2      1 MOL1        -0.6703
       3    O2      19.610580   17.909243   27.349358 O.co2      1 MOL1        -0.6703
       4    C2      19.557709   20.185996   26.734980 C.3        1 MOL1        -0.1963
       5    H1      19.720908   21.019392   27.428378 H          1 MOL1         0.0750
       6    H2      18.475670   20.010856   26.698043 H          1 MOL1         0.0750
       7    C3      20.086528   20.570624   25.328795 C.3        1 MOL1        -0.1860
       8    H3      19.651681   21.535961   25.036251 H          1 MOL1         0.0752
       9    H4      21.174849   20.715434   25.376328 H          1 MOL1         0.0752
      10    C4      19.745729   19.512223   24.255757 C.3        1 MOL1        -0.1858
      11    H5      18.658026   19.361397   24.221455 H          1 MOL1         0.0752
      12    H6      20.192222   18.547143   24.532683 H          1 MOL1         0.0752
      13    C5      20.253400   19.930160   22.858893 C.3        1 MOL1        -0.1858
      14    H7      19.805936   20.893614   22.578593 H          1 MOL1         0.0752
      15    H8      21.341152   20.080624   22.894175 H          1 MOL1         0.0752
      16    C6      19.913847   18.872742   21.786314 C.3        1 MOL1        -0.1858
      17    H9      18.826149   18.721911   21.751069 H          1 MOL1         0.0752
      18    H10     20.361152   17.909147   22.066547 H          1 MOL1         0.0752
      19    C7      20.421628   19.289758   20.390025 C.3        1 MOL1        -0.1834
      20    H11     19.974764   20.252516   20.105619 H          1 MOL1         0.0752
      21    H12     21.509771   19.439633   20.421100 H          1 MOL1         0.0752
      22    C8      20.080581   18.231214   19.321955 C.3        1 MOL1        -0.2849
      23    H13     18.995151   18.084012   19.247341 H          1 MOL1         0.0764
      24    H14     20.448734   18.543695   18.336104 H          1 MOL1         0.0764
      25    H15     20.541667   17.264983   19.565256 H          1 MOL1         0.0764
@<TRIPOS>BOND
    1     1     2    1
    2     1     3    2
    3     1     4    1
    4     4     5    1
    5     4     6    1
    6     4     7    1
    7     7     8    1
    8     7     9    1
    9     7    10    1
   10    10    11    1
   11    10    12    1
   12    10    13    1
   13    13    14    1
   14    13    15    1
   15    13    16    1
   16    16    17    1
   17    16    18    1
   18    16    19    1
   19    19    20    1
   20    19    21    1
   21    19    22    1
   22    22    23    1
   23    22    24    1
   24    22    25    1
@<TRIPOS>SUBSTRUCTURE
       1 MOL1            1 RESIDUE      1      MOL     
@<SCITEGIC>MOL_PROPERTY
VM2 Rank
SciTegic.value.IntegerValue
11

@<SCITEGIC>MOL_PROPERTY
Conf_Id
SciTegic.value.IntegerValue
54

@<SCITEGIC>MOL_PROPERTY
Probability
SciTegic.value.DoubleValue
2.29

@<SCITEGIC>MOL_PROPERTY
Sum Probability
SciTegic.value.DoubleValue
68.66

@<SCITEGIC>MOL_PROPERTY
Delta G
SciTegic.value.DoubleValue
1.388

@<SCITEGIC>MOL_PROPERTY
G
SciTegic.value.DoubleValue
-6.575

@<SCITEGIC>MOL_PROPERTY
E
SciTegic.value.DoubleValue
-31.286

@<SCITEGIC>MOL_PROPERTY
-TS
SciTegic.value.DoubleValue
24.711

@<SCITEGIC>MOL_PROPERTY
U+W
SciTegic.value.DoubleValue
-51.854

@<SCITEGIC>MOL_PROPERTY
U
SciTegic.value.DoubleValue
7.816

@<SCITEGIC>MOL_PROPERTY
W
SciTegic.value.DoubleValue
-59.670

@<SCITEGIC>MOL_PROPERTY
W(PB)
SciTegic.value.DoubleValue
-62.157

@<SCITEGIC>MOL_PROPERTY
W(SA)
SciTegic.value.DoubleValue
2.487

@<SCITEGIC>MOL_PROPERTY
Valence
SciTegic.value.DoubleValue
7.785

@<SCITEGIC>MOL_PROPERTY
Coulomb
SciTegic.value.DoubleValue
-0.713

@<SCITEGIC>MOL_PROPERTY
VdW
SciTegic.value.DoubleValue
0.744

@<SCITEGIC>MOL_PROPERTY
VdW6
SciTegic.value.DoubleValue
-8.515

@<SCITEGIC>MOL_PROPERTY
VdW12
SciTegic.value.DoubleValue
9.259

@<SCITEGIC>MOL_PROPERTY
Bond
SciTegic.value.DoubleValue
0.136

@<SCITEGIC>MOL_PROPERTY
Angle
SciTegic.value.DoubleValue
2.433

@<SCITEGIC>MOL_PROPERTY
Pdih
SciTegic.value.DoubleValue
5.215

@<SCITEGIC>MOL_PROPERTY
Idih
SciTegic.value.DoubleValue
0.000

@<SCITEGIC>MOL_PROPERTY
Tether
SciTegic.value.DoubleValue
0.000

@<TRIPOS>MOLECULE
guest-8_vm2.mol2 : vm2 ligand conformer 12
          25          24           1
SMALL
USER_CHARGES
 
@<TRIPOS>ATOM
       1    C1      20.109381   19.818933   27.332385 C.2        1 MOL1         0.6168
       2    O1      21.133520   20.435603   27.550448 O.co2      1 MOL1        -0.6703
       3    O2      19.379400   19.395604   28.206835 O.co2      1 MOL1        -0.6703
       4    C2      19.731772   19.539867   25.882023 C.3        1 MOL1        -0.1963
       5    H1      20.075067   20.388367   25.279596 H          1 MOL1         0.0750
       6    H2      18.637651   19.513607   25.814460 H          1 MOL1         0.0750
       7    C3      20.332933   18.212621   25.350739 C.3        1 MOL1        -0.1860
       8    H3      21.429878   18.269287   25.379522 H          1 MOL1         0.0752
       9    H4      20.046628   17.398706   26.031193 H          1 MOL1         0.0752
      10    C4      19.865375   17.850588   23.920888 C.3        1 MOL1        -0.1858
      11    H5      18.768959   17.784955   23.897740 H          1 MOL1         0.0752
      12    H6      20.242004   16.848275   23.675064 H          1 MOL1         0.0752
      13    C5      20.349986   18.848889   22.843978 C.3        1 MOL1        -0.1858
      14    H7      19.923110   19.839324   23.042581 H          1 MOL1         0.0752
      15    H8      21.442172   18.950240   22.902466 H          1 MOL1         0.0752
      16    C6      19.949620   18.391420   21.422137 C.3        1 MOL1        -0.1858
      17    H9      18.855141   18.334108   21.346510 H          1 MOL1         0.0752
      18    H10     20.326785   17.373384   21.254225 H          1 MOL1         0.0752
      19    C7      20.498115   19.307943   20.303676 C.3        1 MOL1        -0.1834
      20    H11     21.593288   19.363415   20.373146 H          1 MOL1         0.0752
      21    H12     20.271917   18.850323   19.330720 H          1 MOL1         0.0752
      22    C8      19.902898   20.732533   20.332893 C.3        1 MOL1        -0.2849
      23    H13     20.202268   21.273582   21.239166 H          1 MOL1         0.0764
      24    H14     20.253176   21.312531   19.469295 H          1 MOL1         0.0764
      25    H15     18.806181   20.701037   20.296427 H          1 MOL1         0.0764
@<TRIPOS>BOND
    1     1     2    1
    2     1     3    2
    3     1     4    1
    4     4     5    1
    5     4     6    1
    6     4     7    1
    7     7     8    1
    8     7     9    1
    9     7    10    1
   10    10    11    1
   11    10    12    1
   12    10    13    1
   13    13    14    1
   14    13    15    1
   15    13    16    1
   16    16    17    1
   17    16    18    1
   18    16    19    1
   19    19    20    1
   20    19    21    1
   21    19    22    1
   22    22    23    1
   23    22    24    1
   24    22    25    1
@<TRIPOS>SUBSTRUCTURE
       1 MOL1            1 RESIDUE      1      MOL     
@<SCITEGIC>MOL_PROPERTY
VM2 Rank
SciTegic.value.IntegerValue
12

@<SCITEGIC>MOL_PROPERTY
Conf_Id
SciTegic.value.IntegerValue
88

@<SCITEGIC>MOL_PROPERTY
Probability
SciTegic.value.DoubleValue
1.35

@<SCITEGIC>MOL_PROPERTY
Sum Probability
SciTegic.value.DoubleValue
70.01

@<SCITEGIC>MOL_PROPERTY
Delta G
SciTegic.value.DoubleValue
1.703

@<SCITEGIC>MOL_PROPERTY
G
SciTegic.value.DoubleValue
-6.260

@<SCITEGIC>MOL_PROPERTY
E
SciTegic.value.DoubleValue
-30.876

@<SCITEGIC>MOL_PROPERTY
-TS
SciTegic.value.DoubleValue
24.616

@<SCITEGIC>MOL_PROPERTY
U+W
SciTegic.value.DoubleValue
-51.443

@<SCITEGIC>MOL_PROPERTY
U
SciTegic.value.DoubleValue
7.701

@<SCITEGIC>MOL_PROPERTY
W
SciTegic.value.DoubleValue
-59.144

@<SCITEGIC>MOL_PROPERTY
W(PB)
SciTegic.value.DoubleValue
-61.610

@<SCITEGIC>MOL_PROPERTY
W(SA)
SciTegic.value.DoubleValue
2.466

@<SCITEGIC>MOL_PROPERTY
Valence
SciTegic.value.DoubleValue
8.550

@<SCITEGIC>MOL_PROPERTY
Coulomb
SciTegic.value.DoubleValue
-1.988

@<SCITEGIC>MOL_PROPERTY
VdW
SciTegic.value.DoubleValue
1.139

@<SCITEGIC>MOL_PROPERTY
VdW6
SciTegic.value.DoubleValue
-8.989

@<SCITEGIC>MOL_PROPERTY
VdW12
SciTegic.value.DoubleValue
10.127

@<SCITEGIC>MOL_PROPERTY
Bond
SciTegic.value.DoubleValue
0.191

@<SCITEGIC>MOL_PROPERTY
Angle
SciTegic.value.DoubleValue
2.738

@<SCITEGIC>MOL_PROPERTY
Pdih
SciTegic.value.DoubleValue
5.621

@<SCITEGIC>MOL_PROPERTY
Idih
SciTegic.value.DoubleValue
0.001

@<SCITEGIC>MOL_PROPERTY
Tether
SciTegic.value.DoubleValue
0.000

@<TRIPOS>MOLECULE
guest-8_vm2.mol2 : vm2 ligand conformer 13
          25          24           1
SMALL
USER_CHARGES
 
@<TRIPOS>ATOM
       1    C1      20.551485   19.270285   27.396109 C.2        1 MOL1         0.6168
       2    O1      21.534422   19.970273   27.539452 O.co2      1 MOL1        -0.6703
       3    O2      19.833505   18.922242   28.312688 O.co2      1 MOL1        -0.6703
       4    C2      20.185224   18.823306   25.985403 C.3        1 MOL1        -0.1963
       5    H1      19.704316   17.840273   26.054168 H          1 MOL1         0.0750
       6    H2      21.117750   18.691308   25.425293 H          1 MOL1         0.0750
       7    C3      19.250224   19.827237   25.262243 C.3        1 MOL1        -0.1860
       8    H3      18.369527   20.007186   25.894248 H          1 MOL1         0.0752
       9    H4      19.760633   20.794798   25.159039 H          1 MOL1         0.0752
      10    C4      18.772775   19.337340   23.874422 C.3        1 MOL1        -0.1858
      11    H5      18.032076   20.051119   23.488589 H          1 MOL1         0.0752
      12    H6      18.251375   18.376470   23.983118 H          1 MOL1         0.0752
      13    C5      19.917791   19.196040   22.844875 C.3        1 MOL1        -0.1858
      14    H7      20.469538   20.143282   22.788106 H          1 MOL1         0.0752
      15    H8      20.628087   18.428197   23.177320 H          1 MOL1         0.0752
      16    C6      19.380779   18.815623   21.445621 C.3        1 MOL1        -0.1858
      17    H9      18.713682   19.606840   21.077073 H          1 MOL1         0.0752
      18    H10     18.768275   17.907816   21.532967 H          1 MOL1         0.0752
      19    C7      20.497672   18.556551   20.407777 C.3        1 MOL1        -0.1834
      20    H11     21.161868   17.759127   20.768702 H          1 MOL1         0.0752
      21    H12     20.038827   18.182683   19.482084 H          1 MOL1         0.0752
      22    C8      21.329124   19.815102   20.077412 C.3        1 MOL1        -0.2849
      23    H13     21.899301   20.158870   20.949457 H          1 MOL1         0.0764
      24    H14     22.046771   19.601247   19.274827 H          1 MOL1         0.0764
      25    H15     20.682441   20.636553   19.742553 H          1 MOL1         0.0764
@<TRIPOS>BOND
    1     1     2    1
    2     1     3    2
    3     1     4    1
    4     4     5    1
    5     4     6    1
    6     4     7    1
    7     7     8    1
    8     7     9    1
    9     7    10    1
   10    10    11    1
   11    10    12    1
   12    10    13    1
   13    13    14    1
   14    13    15    1
   15    13    16    1
   16    16    17    1
   17    16    18    1
   18    16    19    1
   19    19    20    1
   20    19    21    1
   21    19    22    1
   22    22    23    1
   23    22    24    1
   24    22    25    1
@<TRIPOS>SUBSTRUCTURE
       1 MOL1            1 RESIDUE      1      MOL     
@<SCITEGIC>MOL_PROPERTY
VM2 Rank
SciTegic.value.IntegerValue
13

@<SCITEGIC>MOL_PROPERTY
Conf_Id
SciTegic.value.IntegerValue
566

@<SCITEGIC>MOL_PROPERTY
Probability
SciTegic.value.DoubleValue
1.30

@<SCITEGIC>MOL_PROPERTY
Sum Probability
SciTegic.value.DoubleValue
71.31

@<SCITEGIC>MOL_PROPERTY
Delta G
SciTegic.value.DoubleValue
1.727

@<SCITEGIC>MOL_PROPERTY
G
SciTegic.value.DoubleValue
-6.235

@<SCITEGIC>MOL_PROPERTY
E
SciTegic.value.DoubleValue
-30.855

@<SCITEGIC>MOL_PROPERTY
-TS
SciTegic.value.DoubleValue
24.620

@<SCITEGIC>MOL_PROPERTY
U+W
SciTegic.value.DoubleValue
-51.423

@<SCITEGIC>MOL_PROPERTY
U
SciTegic.value.DoubleValue
7.651

@<SCITEGIC>MOL_PROPERTY
W
SciTegic.value.DoubleValue
-59.074

@<SCITEGIC>MOL_PROPERTY
W(PB)
SciTegic.value.DoubleValue
-61.559

@<SCITEGIC>MOL_PROPERTY
W(SA)
SciTegic.value.DoubleValue
2.486

@<SCITEGIC>MOL_PROPERTY
Valence
SciTegic.value.DoubleValue
8.550

@<SCITEGIC>MOL_PROPERTY
Coulomb
SciTegic.value.DoubleValue
-2.035

@<SCITEGIC>MOL_PROPERTY
VdW
SciTegic.value.DoubleValue
1.135

@<SCITEGIC>MOL_PROPERTY
VdW6
SciTegic.value.DoubleValue
-8.973

@<SCITEGIC>MOL_PROPERTY
VdW12
SciTegic.value.DoubleValue
10.109

@<SCITEGIC>MOL_PROPERTY
Bond
SciTegic.value.DoubleValue
0.188

@<SCITEGIC>MOL_PROPERTY
Angle
SciTegic.value.DoubleValue
2.738

@<SCITEGIC>MOL_PROPERTY
Pdih
SciTegic.value.DoubleValue
5.623

@<SCITEGIC>MOL_PROPERTY
Idih
SciTegic.value.DoubleValue
0.001

@<SCITEGIC>MOL_PROPERTY
Tether
SciTegic.value.DoubleValue
0.000

@<TRIPOS>MOLECULE
guest-8_vm2.mol2 : vm2 ligand conformer 14
          25          24           1
SMALL
USER_CHARGES
 
@<TRIPOS>ATOM
       1    C1      20.138481   19.820804   27.332040 C.2        1 MOL1         0.6168
       2    O1      20.936416   19.495354   28.188850 O.co2      1 MOL1        -0.6703
       3    O2      19.049347   20.302151   27.574500 O.co2      1 MOL1        -0.6703
       4    C2      20.515126   19.589974   25.872975 C.3        1 MOL1        -0.1963
       5    H1      21.601829   19.703243   25.780230 H          1 MOL1         0.0750
       6    H2      20.052748   20.386922   25.279847 H          1 MOL1         0.0750
       7    C3      20.075931   18.196157   25.353724 C.3        1 MOL1        -0.1860
       8    H3      20.479234   17.426367   26.026194 H          1 MOL1         0.0752
       9    H4      18.981665   18.112605   25.407871 H          1 MOL1         0.0752
      10    C4      20.552727   17.894556   23.912943 C.3        1 MOL1        -0.1858
      11    H5      20.301282   16.852074   23.674373 H          1 MOL1         0.0752
      12    H6      21.647745   17.969092   23.864438 H          1 MOL1         0.0752
      13    C5      19.920211   18.821416   22.848967 C.3        1 MOL1        -0.1858
      14    H7      18.825652   18.782912   22.932765 H          1 MOL1         0.0752
      15    H8      20.221913   19.858450   23.039134 H          1 MOL1         0.0752
      16    C6      20.342710   18.416566   21.417609 C.3        1 MOL1        -0.1858
      17    H9      20.094516   17.358533   21.256947 H          1 MOL1         0.0752
      18    H10     21.433538   18.499015   21.316692 H          1 MOL1         0.0752
      19    C7      19.656302   19.254093   20.313432 C.3        1 MOL1        -0.1834
      20    H11     19.916422   18.827541   19.334853 H          1 MOL1         0.0752
      21    H12     18.564880   19.169742   20.408248 H          1 MOL1         0.0752
      22    C8      20.065750   20.742930   20.330959 C.3        1 MOL1        -0.2849
      23    H13     21.156405   20.851320   20.269056 H          1 MOL1         0.0764
      24    H14     19.624548   21.272308   19.476561 H          1 MOL1         0.0764
      25    H15     19.720970   21.242786   21.244719 H          1 MOL1         0.0764
@<TRIPOS>BOND
    1     1     2    1
    2     1     3    2
    3     1     4    1
    4     4     5    1
    5     4     6    1
    6     4     7    1
    7     7     8    1
    8     7     9    1
    9     7    10    1
   10    10    11    1
   11    10    12    1
   12    10    13    1
   13    13    14    1
   14    13    15    1
   15    13    16    1
   16    16    17    1
   17    16    18    1
   18    16    19    1
   19    19    20    1
   20    19    21    1
   21    19    22    1
   22    22    23    1
   23    22    24    1
   24    22    25    1
@<TRIPOS>SUBSTRUCTURE
       1 MOL1            1 RESIDUE      1      MOL     
@<SCITEGIC>MOL_PROPERTY
VM2 Rank
SciTegic.value.IntegerValue
14

@<SCITEGIC>MOL_PROPERTY
Conf_Id
SciTegic.value.IntegerValue
923

@<SCITEGIC>MOL_PROPERTY
Probability
SciTegic.value.DoubleValue
1.29

@<SCITEGIC>MOL_PROPERTY
Sum Probability
SciTegic.value.DoubleValue
72.60

@<SCITEGIC>MOL_PROPERTY
Delta G
SciTegic.value.DoubleValue
1.731

@<SCITEGIC>MOL_PROPERTY
G
SciTegic.value.DoubleValue
-6.231

@<SCITEGIC>MOL_PROPERTY
E
SciTegic.value.DoubleValue
-30.847

@<SCITEGIC>MOL_PROPERTY
-TS
SciTegic.value.DoubleValue
24.616

@<SCITEGIC>MOL_PROPERTY
U+W
SciTegic.value.DoubleValue
-51.414

@<SCITEGIC>MOL_PROPERTY
U
SciTegic.value.DoubleValue
7.701

@<SCITEGIC>MOL_PROPERTY
W
SciTegic.value.DoubleValue
-59.115

@<SCITEGIC>MOL_PROPERTY
W(PB)
SciTegic.value.DoubleValue
-61.582

@<SCITEGIC>MOL_PROPERTY
W(SA)
SciTegic.value.DoubleValue
2.467

@<SCITEGIC>MOL_PROPERTY
Valence
SciTegic.value.DoubleValue
8.550

@<SCITEGIC>MOL_PROPERTY
Coulomb
SciTegic.value.DoubleValue
-1.988

@<SCITEGIC>MOL_PROPERTY
VdW
SciTegic.value.DoubleValue
1.139

@<SCITEGIC>MOL_PROPERTY
VdW6
SciTegic.value.DoubleValue
-8.989

@<SCITEGIC>MOL_PROPERTY
VdW12
SciTegic.value.DoubleValue
10.127

@<SCITEGIC>MOL_PROPERTY
Bond
SciTegic.value.DoubleValue
0.191

@<SCITEGIC>MOL_PROPERTY
Angle
SciTegic.value.DoubleValue
2.738

@<SCITEGIC>MOL_PROPERTY
Pdih
SciTegic.value.DoubleValue
5.620

@<SCITEGIC>MOL_PROPERTY
Idih
SciTegic.value.DoubleValue
0.001

@<SCITEGIC>MOL_PROPERTY
Tether
SciTegic.value.DoubleValue
0.000

@<TRIPOS>MOLECULE
guest-8_vm2.mol2 : vm2 ligand conformer 15
          25          24           1
SMALL
USER_CHARGES
 
@<TRIPOS>ATOM
       1    C1      20.138423   19.033120   27.484611 C.2        1 MOL1         0.6168
       2    O1      21.226685   19.230969   27.987856 O.co2      1 MOL1        -0.6703
       3    O2      19.103179   18.980016   28.118798 O.co2      1 MOL1        -0.6703
       4    C2      20.064700   18.865377   25.971203 C.3        1 MOL1        -0.1963
       5    H1      19.236398   18.183566   25.744444 H          1 MOL1         0.0750
       6    H2      20.988695   18.375040   25.644629 H          1 MOL1         0.0750
       7    C3      19.868322   20.211905   25.227399 C.3        1 MOL1        -0.1860
       8    H3      18.984567   20.717909   25.640149 H          1 MOL1         0.0752
       9    H4      20.724641   20.870383   25.428481 H          1 MOL1         0.0752
      10    C4      19.679692   20.050119   23.700296 C.3        1 MOL1        -0.1858
      11    H5      19.442756   21.033264   23.271326 H          1 MOL1         0.0752
      12    H6      18.809171   19.408500   23.511178 H          1 MOL1         0.0752
      13    C5      20.928177   19.475821   22.987044 C.3        1 MOL1        -0.1858
      14    H7      21.810818   20.055981   23.288787 H          1 MOL1         0.0752
      15    H8      21.106951   18.442808   23.312744 H          1 MOL1         0.0752
      16    C6      20.822761   19.509454   21.443753 C.3        1 MOL1        -0.1858
      17    H9      21.787147   19.195174   21.021784 H          1 MOL1         0.0752
      18    H10     20.659145   20.542654   21.108208 H          1 MOL1         0.0752
      19    C7      19.708246   18.597111   20.883498 C.3        1 MOL1        -0.1834
      20    H11     19.842825   17.573774   21.260158 H          1 MOL1         0.0752
      21    H12     18.726322   18.941166   21.234130 H          1 MOL1         0.0752
      22    C8      19.712815   18.580107   19.341542 C.3        1 MOL1        -0.2849
      23    H13     20.669138   18.203943   18.955166 H          1 MOL1         0.0764
      24    H14     18.914351   17.930806   18.959557 H          1 MOL1         0.0764
      25    H15     19.552336   19.588265   18.937527 H          1 MOL1         0.0764
@<TRIPOS>BOND
    1     1     2    1
    2     1     3    2
    3     1     4    1
    4     4     5    1
    5     4     6    1
    6     4     7    1
    7     7     8    1
    8     7     9    1
    9     7    10    1
   10    10    11    1
   11    10    12    1
   12    10    13    1
   13    13    14    1
   14    13    15    1
   15    13    16    1
   16    16    17    1
   17    16    18    1
   18    16    19    1
   19    19    20    1
   20    19    21    1
   21    19    22    1
   22    22    23    1
   23    22    24    1
   24    22    25    1
@<TRIPOS>SUBSTRUCTURE
       1 MOL1            1 RESIDUE      1      MOL     
@<SCITEGIC>MOL_PROPERTY
VM2 Rank
SciTegic.value.IntegerValue
15

@<SCITEGIC>MOL_PROPERTY
Conf_Id
SciTegic.value.IntegerValue
969

@<SCITEGIC>MOL_PROPERTY
Probability
SciTegic.value.DoubleValue
1.26

@<SCITEGIC>MOL_PROPERTY
Sum Probability
SciTegic.value.DoubleValue
73.86

@<SCITEGIC>MOL_PROPERTY
Delta G
SciTegic.value.DoubleValue
1.744

@<SCITEGIC>MOL_PROPERTY
G
SciTegic.value.DoubleValue
-6.218

@<SCITEGIC>MOL_PROPERTY
E
SciTegic.value.DoubleValue
-30.854

@<SCITEGIC>MOL_PROPERTY
-TS
SciTegic.value.DoubleValue
24.636

@<SCITEGIC>MOL_PROPERTY
U+W
SciTegic.value.DoubleValue
-51.422

@<SCITEGIC>MOL_PROPERTY
U
SciTegic.value.DoubleValue
7.389

@<SCITEGIC>MOL_PROPERTY
W
SciTegic.value.DoubleValue
-58.811

@<SCITEGIC>MOL_PROPERTY
W(PB)
SciTegic.value.DoubleValue
-61.285

@<SCITEGIC>MOL_PROPERTY
W(SA)
SciTegic.value.DoubleValue
2.474

@<SCITEGIC>MOL_PROPERTY
Valence
SciTegic.value.DoubleValue
8.557

@<SCITEGIC>MOL_PROPERTY
Coulomb
SciTegic.value.DoubleValue
-2.278

@<SCITEGIC>MOL_PROPERTY
VdW
SciTegic.value.DoubleValue
1.110

@<SCITEGIC>MOL_PROPERTY
VdW6
SciTegic.value.DoubleValue
-9.029

@<SCITEGIC>MOL_PROPERTY
VdW12
SciTegic.value.DoubleValue
10.139

@<SCITEGIC>MOL_PROPERTY
Bond
SciTegic.value.DoubleValue
0.192

@<SCITEGIC>MOL_PROPERTY
Angle
SciTegic.value.DoubleValue
2.716

@<SCITEGIC>MOL_PROPERTY
Pdih
SciTegic.value.DoubleValue
5.648

@<SCITEGIC>MOL_PROPERTY
Idih
SciTegic.value.DoubleValue
0.001

@<SCITEGIC>MOL_PROPERTY
Tether
SciTegic.value.DoubleValue
0.000

@<TRIPOS>MOLECULE
guest-8_vm2.mol2 : vm2 ligand conformer 16
          25          24           1
SMALL
USER_CHARGES
 
@<TRIPOS>ATOM
       1    C1      20.213132   19.038053   27.483865 C.2        1 MOL1         0.6168
       2    O1      21.261058   19.117053   28.094071 O.co2      1 MOL1        -0.6703
       3    O2      19.120422   19.097740   28.012198 O.co2      1 MOL1        -0.6703
       4    C2      20.272739   18.878584   25.968939 C.3        1 MOL1        -0.1963
       5    H1      19.411153   18.274464   25.663074 H          1 MOL1         0.0750
       6    H2      21.175415   18.307005   25.722271 H          1 MOL1         0.0750
       7    C3      20.279525   20.237949   25.222598 C.3        1 MOL1        -0.1860
       8    H3      19.351425   20.782763   25.444217 H          1 MOL1         0.0752
       9    H4      21.101185   20.852667   25.615565 H          1 MOL1         0.0752
      10    C4      20.451965   20.098989   23.691337 C.3        1 MOL1        -0.1858
      11    H5      21.392396   19.572928   23.481337 H          1 MOL1         0.0752
      12    H6      20.552051   21.103587   23.258332 H          1 MOL1         0.0752
      13    C5      19.270528   19.369490   23.006283 C.3        1 MOL1        -0.1858
      14    H7      19.232321   18.322559   23.334363 H          1 MOL1         0.0752
      15    H8      18.328454   19.832973   23.329347 H          1 MOL1         0.0752
      16    C6      19.334963   19.414220   21.461019 C.3        1 MOL1        -0.1858
      17    H9      19.357688   20.459404   21.123468 H          1 MOL1         0.0752
      18    H10     18.408986   18.978990   21.061003 H          1 MOL1         0.0752
      19    C7      20.543412   18.650707   20.873575 C.3        1 MOL1        -0.1834
      20    H11     21.481311   19.117655   21.201902 H          1 MOL1         0.0752
      21    H12     20.549219   17.619065   21.251578 H          1 MOL1         0.0752
      22    C8      20.505256   18.631215   19.332115 C.3        1 MOL1        -0.2849
      23    H13     20.526394   19.651074   18.926153 H          1 MOL1         0.0764
      24    H14     21.370941   18.088576   18.930641 H          1 MOL1         0.0764
      25    H15     19.596020   18.135618   18.967406 H          1 MOL1         0.0764
@<TRIPOS>BOND
    1     1     2    1
    2     1     3    2
    3     1     4    1
    4     4     5    1
    5     4     6    1
    6     4     7    1
    7     7     8    1
    8     7     9    1
    9     7    10    1
   10    10    11    1
   11    10    12    1
   12    10    13    1
   13    13    14    1
   14    13    15    1
   15    13    16    1
   16    16    17    1
   17    16    18    1
   18    16    19    1
   19    19    20    1
   20    19    21    1
   21    19    22    1
   22    22    23    1
   23    22    24    1
   24    22    25    1
@<TRIPOS>SUBSTRUCTURE
       1 MOL1            1 RESIDUE      1      MOL     
@<SCITEGIC>MOL_PROPERTY
VM2 Rank
SciTegic.value.IntegerValue
16

@<SCITEGIC>MOL_PROPERTY
Conf_Id
SciTegic.value.IntegerValue
972

@<SCITEGIC>MOL_PROPERTY
Probability
SciTegic.value.DoubleValue
1.24

@<SCITEGIC>MOL_PROPERTY
Sum Probability
SciTegic.value.DoubleValue
75.09

@<SCITEGIC>MOL_PROPERTY
Delta G
SciTegic.value.DoubleValue
1.756

@<SCITEGIC>MOL_PROPERTY
G
SciTegic.value.DoubleValue
-6.207

@<SCITEGIC>MOL_PROPERTY
E
SciTegic.value.DoubleValue
-30.843

@<SCITEGIC>MOL_PROPERTY
-TS
SciTegic.value.DoubleValue
24.637

@<SCITEGIC>MOL_PROPERTY
U+W
SciTegic.value.DoubleValue
-51.411

@<SCITEGIC>MOL_PROPERTY
U
SciTegic.value.DoubleValue
7.389

@<SCITEGIC>MOL_PROPERTY
W
SciTegic.value.DoubleValue
-58.800

@<SCITEGIC>MOL_PROPERTY
W(PB)
SciTegic.value.DoubleValue
-61.266

@<SCITEGIC>MOL_PROPERTY
W(SA)
SciTegic.value.DoubleValue
2.466

@<SCITEGIC>MOL_PROPERTY
Valence
SciTegic.value.DoubleValue
8.557

@<SCITEGIC>MOL_PROPERTY
Coulomb
SciTegic.value.DoubleValue
-2.278

@<SCITEGIC>MOL_PROPERTY
VdW
SciTegic.value.DoubleValue
1.110

@<SCITEGIC>MOL_PROPERTY
VdW6
SciTegic.value.DoubleValue
-9.029

@<SCITEGIC>MOL_PROPERTY
VdW12
SciTegic.value.DoubleValue
10.139

@<SCITEGIC>MOL_PROPERTY
Bond
SciTegic.value.DoubleValue
0.192

@<SCITEGIC>MOL_PROPERTY
Angle
SciTegic.value.DoubleValue
2.716

@<SCITEGIC>MOL_PROPERTY
Pdih
SciTegic.value.DoubleValue
5.648

@<SCITEGIC>MOL_PROPERTY
Idih
SciTegic.value.DoubleValue
0.001

@<SCITEGIC>MOL_PROPERTY
Tether
SciTegic.value.DoubleValue
0.000

@<TRIPOS>MOLECULE
guest-8_vm2.mol2 : vm2 ligand conformer 17
          25          24           1
SMALL
USER_CHARGES
 
@<TRIPOS>ATOM
       1    C1      20.130033   19.338273   27.829253 C.2        1 MOL1         0.6168
       2    O1      21.019369   20.166701   27.866561 O.co2      1 MOL1        -0.6703
       3    O2      19.610120   18.877206   28.825860 O.co2      1 MOL1        -0.6703
       4    C2      19.620382   18.832762   26.478656 C.3        1 MOL1        -0.1963
       5    H1      18.543305   19.033515   26.439793 H          1 MOL1         0.0750
       6    H2      19.744458   17.743530   26.469352 H          1 MOL1         0.0750
       7    C3      20.314418   19.450536   25.235642 C.3        1 MOL1        -0.1860
       8    H3      20.191720   20.542363   25.254704 H          1 MOL1         0.0752
       9    H4      21.393953   19.251169   25.284248 H          1 MOL1         0.0752
      10    C4      19.740692   18.886179   23.917694 C.3        1 MOL1        -0.1858
      11    H5      18.661424   19.086597   23.871334 H          1 MOL1         0.0752
      12    H6      19.864429   17.794600   23.900888 H          1 MOL1         0.0752
      13    C5      20.432483   19.502069   22.682546 C.3        1 MOL1        -0.1858
      14    H7      20.308881   20.593652   22.699068 H          1 MOL1         0.0752
      15    H8      21.511771   19.301770   22.728608 H          1 MOL1         0.0752
      16    C6      19.859290   18.938222   21.364426 C.3        1 MOL1        -0.1858
      17    H9      18.780006   19.138460   21.318130 H          1 MOL1         0.0752
      18    H10     19.982883   17.846646   21.347644 H          1 MOL1         0.0752
      19    C7      20.550672   19.553800   20.129754 C.3        1 MOL1        -0.1834
      20    H11     20.427510   20.645664   20.142131 H          1 MOL1         0.0752
      21    H12     21.630375   19.353859   20.171636 H          1 MOL1         0.0752
      22    C8      19.975540   18.988253   18.815607 C.3        1 MOL1        -0.2849
      23    H13     18.901823   19.201904   18.732646 H          1 MOL1         0.0764
      24    H14     20.478197   19.436520   17.948727 H          1 MOL1         0.0764
      25    H15     20.113757   17.900385   18.762360 H          1 MOL1         0.0764
@<TRIPOS>BOND
    1     1     2    1
    2     1     3    2
    3     1     4    1
    4     4     5    1
    5     4     6    1
    6     4     7    1
    7     7     8    1
    8     7     9    1
    9     7    10    1
   10    10    11    1
   11    10    12    1
   12    10    13    1
   13    13    14    1
   14    13    15    1
   15    13    16    1
   16    16    17    1
   17    16    18    1
   18    16    19    1
   19    19    20    1
   20    19    21    1
   21    19    22    1
   22    22    23    1
   23    22    24    1
   24    22    25    1
@<TRIPOS>SUBSTRUCTURE
       1 MOL1            1 RESIDUE      1      MOL     
@<SCITEGIC>MOL_PROPERTY
VM2 Rank
SciTegic.value.IntegerValue
17

@<SCITEGIC>MOL_PROPERTY
Conf_Id
SciTegic.value.IntegerValue
0

@<SCITEGIC>MOL_PROPERTY
Probability
SciTegic.value.DoubleValue
1.11

@<SCITEGIC>MOL_PROPERTY
Sum Probability
SciTegic.value.DoubleValue
76.21

@<SCITEGIC>MOL_PROPERTY
Delta G
SciTegic.value.DoubleValue
1.818

@<SCITEGIC>MOL_PROPERTY
G
SciTegic.value.DoubleValue
-6.144

@<SCITEGIC>MOL_PROPERTY
E
SciTegic.value.DoubleValue
-31.062

@<SCITEGIC>MOL_PROPERTY
-TS
SciTegic.value.DoubleValue
24.917

@<SCITEGIC>MOL_PROPERTY
U+W
SciTegic.value.DoubleValue
-51.629

@<SCITEGIC>MOL_PROPERTY
U
SciTegic.value.DoubleValue
6.586

@<SCITEGIC>MOL_PROPERTY
W
SciTegic.value.DoubleValue
-58.216

@<SCITEGIC>MOL_PROPERTY
W(PB)
SciTegic.value.DoubleValue
-60.757

@<SCITEGIC>MOL_PROPERTY
W(SA)
SciTegic.value.DoubleValue
2.541

@<SCITEGIC>MOL_PROPERTY
Valence
SciTegic.value.DoubleValue
8.027

@<SCITEGIC>MOL_PROPERTY
Coulomb
SciTegic.value.DoubleValue
-2.892

@<SCITEGIC>MOL_PROPERTY
VdW
SciTegic.value.DoubleValue
1.451

@<SCITEGIC>MOL_PROPERTY
VdW6
SciTegic.value.DoubleValue
-7.931

@<SCITEGIC>MOL_PROPERTY
VdW12
SciTegic.value.DoubleValue
9.383

@<SCITEGIC>MOL_PROPERTY
Bond
SciTegic.value.DoubleValue
0.149

@<SCITEGIC>MOL_PROPERTY
Angle
SciTegic.value.DoubleValue
2.726

@<SCITEGIC>MOL_PROPERTY
Pdih
SciTegic.value.DoubleValue
5.152

@<SCITEGIC>MOL_PROPERTY
Idih
SciTegic.value.DoubleValue
0.000

@<SCITEGIC>MOL_PROPERTY
Tether
SciTegic.value.DoubleValue
0.000

@<TRIPOS>MOLECULE
guest-8_vm2.mol2 : vm2 ligand conformer 18
          25          24           1
SMALL
USER_CHARGES
 
@<TRIPOS>ATOM
       1    C1      19.615406   19.434663   27.050861 C.2        1 MOL1         0.6168
       2    O1      20.149131   19.281613   28.131858 O.co2      1 MOL1        -0.6703
       3    O2      18.644843   20.144145   26.873858 O.co2      1 MOL1        -0.6703
       4    C2      20.210356   18.714187   25.846401 C.3        1 MOL1        -0.1963
       5    H1      19.387165   18.466012   25.166778 H          1 MOL1         0.0750
       6    H2      20.643221   17.768659   26.194005 H          1 MOL1         0.0750
       7    C3      21.285377   19.557978   25.113745 C.3        1 MOL1        -0.1860
       8    H3      20.831719   20.485007   24.738766 H          1 MOL1         0.0752
       9    H4      22.047876   19.867142   25.841943 H          1 MOL1         0.0752
      10    C4      21.986242   18.800375   23.957892 C.3        1 MOL1        -0.1858
      11    H5      22.532757   17.943488   24.374820 H          1 MOL1         0.0752
      12    H6      22.746720   19.458054   23.515271 H          1 MOL1         0.0752
      13    C5      21.048180   18.291832   22.834302 C.3        1 MOL1        -0.1858
      14    H7      21.658380   17.766631   22.086938 H          1 MOL1         0.0752
      15    H8      20.351634   17.544508   23.236259 H          1 MOL1         0.0752
      16    C6      20.256439   19.419675   22.133097 C.3        1 MOL1        -0.1858
      17    H9      20.953403   20.188761   21.773308 H          1 MOL1         0.0752
      18    H10     19.583908   19.906056   22.851904 H          1 MOL1         0.0752
      19    C7      19.425139   18.882154   20.949223 C.3        1 MOL1        -0.1834
      20    H11     20.088928   18.399308   20.218726 H          1 MOL1         0.0752
      21    H12     18.728478   18.111109   21.306417 H          1 MOL1         0.0752
      22    C8      18.631887   20.007379   20.254764 C.3        1 MOL1        -0.2849
      23    H13     19.307048   20.778149   19.860528 H          1 MOL1         0.0764
      24    H14     18.047054   19.607795   19.416111 H          1 MOL1         0.0764
      25    H15     17.935835   20.487103   20.955320 H          1 MOL1         0.0764
@<TRIPOS>BOND
    1     1     2    1
    2     1     3    2
    3     1     4    1
    4     4     5    1
    5     4     6    1
    6     4     7    1
    7     7     8    1
    8     7     9    1
    9     7    10    1
   10    10    11    1
   11    10    12    1
   12    10    13    1
   13    13    14    1
   14    13    15    1
   15    13    16    1
   16    16    17    1
   17    16    18    1
   18    16    19    1
   19    19    20    1
   20    19    21    1
   21    19    22    1
   22    22    23    1
   23    22    24    1
   24    22    25    1
@<TRIPOS>SUBSTRUCTURE
       1 MOL1            1 RESIDUE      1      MOL     
@<SCITEGIC>MOL_PROPERTY
VM2 Rank
SciTegic.value.IntegerValue
18

@<SCITEGIC>MOL_PROPERTY
Conf_Id
SciTegic.value.IntegerValue
781

@<SCITEGIC>MOL_PROPERTY
Probability
SciTegic.value.DoubleValue
1.11

@<SCITEGIC>MOL_PROPERTY
Sum Probability
SciTegic.value.DoubleValue
77.32

@<SCITEGIC>MOL_PROPERTY
Delta G
SciTegic.value.DoubleValue
1.821

@<SCITEGIC>MOL_PROPERTY
G
SciTegic.value.DoubleValue
-6.141

@<SCITEGIC>MOL_PROPERTY
E
SciTegic.value.DoubleValue
-30.984

@<SCITEGIC>MOL_PROPERTY
-TS
SciTegic.value.DoubleValue
24.843

@<SCITEGIC>MOL_PROPERTY
U+W
SciTegic.value.DoubleValue
-51.551

@<SCITEGIC>MOL_PROPERTY
U
SciTegic.value.DoubleValue
8.114

@<SCITEGIC>MOL_PROPERTY
W
SciTegic.value.DoubleValue
-59.665

@<SCITEGIC>MOL_PROPERTY
W(PB)
SciTegic.value.DoubleValue
-62.138

@<SCITEGIC>MOL_PROPERTY
W(SA)
SciTegic.value.DoubleValue
2.473

@<SCITEGIC>MOL_PROPERTY
Valence
SciTegic.value.DoubleValue
8.487

@<SCITEGIC>MOL_PROPERTY
Coulomb
SciTegic.value.DoubleValue
-1.260

@<SCITEGIC>MOL_PROPERTY
VdW
SciTegic.value.DoubleValue
0.887

@<SCITEGIC>MOL_PROPERTY
VdW6
SciTegic.value.DoubleValue
-9.447

@<SCITEGIC>MOL_PROPERTY
VdW12
SciTegic.value.DoubleValue
10.334

@<SCITEGIC>MOL_PROPERTY
Bond
SciTegic.value.DoubleValue
0.199

@<SCITEGIC>MOL_PROPERTY
Angle
SciTegic.value.DoubleValue
2.915

@<SCITEGIC>MOL_PROPERTY
Pdih
SciTegic.value.DoubleValue
5.373

@<SCITEGIC>MOL_PROPERTY
Idih
SciTegic.value.DoubleValue
0.001

@<SCITEGIC>MOL_PROPERTY
Tether
SciTegic.value.DoubleValue
0.000

@<TRIPOS>MOLECULE
guest-8_vm2.mol2 : vm2 ligand conformer 19
          25          24           1
SMALL
USER_CHARGES
 
@<TRIPOS>ATOM
       1    C1      20.152051   19.475477   27.575996 C.2        1 MOL1         0.6168
       2    O1      21.235825   19.874427   27.954131 O.co2      1 MOL1        -0.6703
       3    O2      19.354818   18.908033   28.296531 O.co2      1 MOL1        -0.6703
       4    C2      19.781806   19.676552   26.110856 C.3        1 MOL1        -0.1963
       5    H1      20.237967   20.615735   25.778837 H          1 MOL1         0.0750
       6    H2      18.694296   19.802661   26.049405 H          1 MOL1         0.0750
       7    C3      20.235694   18.497635   25.210998 C.3        1 MOL1        -0.1860
       8    H3      21.330681   18.411816   25.241966 H          1 MOL1         0.0752
       9    H4      19.839900   17.562769   25.631540 H          1 MOL1         0.0752
      10    C4      19.761520   18.618400   23.742877 C.3        1 MOL1        -0.1858
      11    H5      18.667425   18.713084   23.716263 H          1 MOL1         0.0752
      12    H6      20.005356   17.679394   23.230136 H          1 MOL1         0.0752
      13    C5      20.407493   19.803389   22.983294 C.3        1 MOL1        -0.1858
      14    H7      20.164847   20.742052   23.497126 H          1 MOL1         0.0752
      15    H8      21.501555   19.708174   23.008620 H          1 MOL1         0.0752
      16    C6      19.932353   19.927503   21.515698 C.3        1 MOL1        -0.1858
      17    H9      20.321826   20.868543   21.103787 H          1 MOL1         0.0752
      18    H10     18.836998   20.007220   21.488811 H          1 MOL1         0.0752
      19    C7      20.393100   18.759729   20.613994 C.3        1 MOL1        -0.1834
      20    H11     21.483417   18.644299   20.685284 H          1 MOL1         0.0752
      21    H12     19.947675   17.816871   20.956945 H          1 MOL1         0.0752
      22    C8      19.998340   18.992854   19.141624 C.3        1 MOL1        -0.2849
      23    H13     20.459239   19.909611   18.751147 H          1 MOL1         0.0764
      24    H14     20.329050   18.154307   18.515105 H          1 MOL1         0.0764
      25    H15     18.909318   19.085110   19.037248 H          1 MOL1         0.0764
@<TRIPOS>BOND
    1     1     2    1
    2     1     3    2
    3     1     4    1
    4     4     5    1
    5     4     6    1
    6     4     7    1
    7     7     8    1
    8     7     9    1
    9     7    10    1
   10    10    11    1
   11    10    12    1
   12    10    13    1
   13    13    14    1
   14    13    15    1
   15    13    16    1
   16    16    17    1
   17    16    18    1
   18    16    19    1
   19    19    20    1
   20    19    21    1
   21    19    22    1
   22    22    23    1
   23    22    24    1
   24    22    25    1
@<TRIPOS>SUBSTRUCTURE
       1 MOL1            1 RESIDUE      1      MOL     
@<SCITEGIC>MOL_PROPERTY
VM2 Rank
SciTegic.value.IntegerValue
19

@<SCITEGIC>MOL_PROPERTY
Conf_Id
SciTegic.value.IntegerValue
727

@<SCITEGIC>MOL_PROPERTY
Probability
SciTegic.value.DoubleValue
1.10

@<SCITEGIC>MOL_PROPERTY
Sum Probability
SciTegic.value.DoubleValue
78.42

@<SCITEGIC>MOL_PROPERTY
Delta G
SciTegic.value.DoubleValue
1.824

@<SCITEGIC>MOL_PROPERTY
G
SciTegic.value.DoubleValue
-6.138

@<SCITEGIC>MOL_PROPERTY
E
SciTegic.value.DoubleValue
-30.686

@<SCITEGIC>MOL_PROPERTY
-TS
SciTegic.value.DoubleValue
24.548

@<SCITEGIC>MOL_PROPERTY
U+W
SciTegic.value.DoubleValue
-51.254

@<SCITEGIC>MOL_PROPERTY
U
SciTegic.value.DoubleValue
7.507

@<SCITEGIC>MOL_PROPERTY
W
SciTegic.value.DoubleValue
-58.760

@<SCITEGIC>MOL_PROPERTY
W(PB)
SciTegic.value.DoubleValue
-61.242

@<SCITEGIC>MOL_PROPERTY
W(SA)
SciTegic.value.DoubleValue
2.482

@<SCITEGIC>MOL_PROPERTY
Valence
SciTegic.value.DoubleValue
8.668

@<SCITEGIC>MOL_PROPERTY
Coulomb
SciTegic.value.DoubleValue
-2.355

@<SCITEGIC>MOL_PROPERTY
VdW
SciTegic.value.DoubleValue
1.194

@<SCITEGIC>MOL_PROPERTY
VdW6
SciTegic.value.DoubleValue
-8.929

@<SCITEGIC>MOL_PROPERTY
VdW12
SciTegic.value.DoubleValue
10.123

@<SCITEGIC>MOL_PROPERTY
Bond
SciTegic.value.DoubleValue
0.201

@<SCITEGIC>MOL_PROPERTY
Angle
SciTegic.value.DoubleValue
2.816

@<SCITEGIC>MOL_PROPERTY
Pdih
SciTegic.value.DoubleValue
5.650

@<SCITEGIC>MOL_PROPERTY
Idih
SciTegic.value.DoubleValue
0.001

@<SCITEGIC>MOL_PROPERTY
Tether
SciTegic.value.DoubleValue
0.000

@<TRIPOS>MOLECULE
guest-8_vm2.mol2 : vm2 ligand conformer 20
          25          24           1
SMALL
USER_CHARGES
 
@<TRIPOS>ATOM
       1    C1      20.273412   18.984558   27.436400 C.2        1 MOL1         0.6168
       2    O1      21.444374   18.845632   27.730003 O.co2      1 MOL1        -0.6703
       3    O2      19.374305   18.329275   27.925160 O.co2      1 MOL1        -0.6703
       4    C2      19.914478   20.024461   26.380951 C.3        1 MOL1        -0.1963
       5    H1      20.629675   20.851918   26.460863 H          1 MOL1         0.0750
       6    H2      18.923726   20.427320   26.623150 H          1 MOL1         0.0750
       7    C3      19.921766   19.449132   24.943198 C.3        1 MOL1        -0.1860
       8    H3      20.916349   19.034766   24.731691 H          1 MOL1         0.0752
       9    H4      19.208019   18.615966   24.882142 H          1 MOL1         0.0752
      10    C4      19.558953   20.524645   23.893096 C.3        1 MOL1        -0.1858
      11    H5      20.301854   21.333574   23.919014 H          1 MOL1         0.0752
      12    H6      18.595789   20.978390   24.163929 H          1 MOL1         0.0752
      13    C5      19.450671   19.966636   22.454098 C.3        1 MOL1        -0.1858
      14    H7      18.695359   19.170179   22.431972 H          1 MOL1         0.0752
      15    H8      19.081382   20.765683   21.797037 H          1 MOL1         0.0752
      16    C6      20.795278   19.437799   21.897397 C.3        1 MOL1        -0.1858
      17    H9      21.118285   18.556541   22.466798 H          1 MOL1         0.0752
      18    H10     21.568827   20.204337   22.041205 H          1 MOL1         0.0752
      19    C7      20.734707   19.075338   20.395240 C.3        1 MOL1        -0.1834
      20    H11     20.429704   19.955680   19.812796 H          1 MOL1         0.0752
      21    H12     21.745794   18.813123   20.054425 H          1 MOL1         0.0752
      22    C8      19.785058   17.896525   20.090457 C.3        1 MOL1        -0.2849
      23    H13     20.054723   17.011869   20.681888 H          1 MOL1         0.0764
      24    H14     18.742231   18.154871   20.313130 H          1 MOL1         0.0764
      25    H15     19.840485   17.623243   19.028796 H          1 MOL1         0.0764
@<TRIPOS>BOND
    1     1     2    1
    2     1     3    2
    3     1     4    1
    4     4     5    1
    5     4     6    1
    6     4     7    1
    7     7     8    1
    8     7     9    1
    9     7    10    1
   10    10    11    1
   11    10    12    1
   12    10    13    1
   13    13    14    1
   14    13    15    1
   15    13    16    1
   16    16    17    1
   17    16    18    1
   18    16    19    1
   19    19    20    1
   20    19    21    1
   21    19    22    1
   22    22    23    1
   23    22    24    1
   24    22    25    1
@<TRIPOS>SUBSTRUCTURE
       1 MOL1            1 RESIDUE      1      MOL     
@<SCITEGIC>MOL_PROPERTY
VM2 Rank
SciTegic.value.IntegerValue
20

@<SCITEGIC>MOL_PROPERTY
Conf_Id
SciTegic.value.IntegerValue
492

@<SCITEGIC>MOL_PROPERTY
Probability
SciTegic.value.DoubleValue
1.08

@<SCITEGIC>MOL_PROPERTY
Sum Probability
SciTegic.value.DoubleValue
79.50

@<SCITEGIC>MOL_PROPERTY
Delta G
SciTegic.value.DoubleValue
1.837

@<SCITEGIC>MOL_PROPERTY
G
SciTegic.value.DoubleValue
-6.125

@<SCITEGIC>MOL_PROPERTY
E
SciTegic.value.DoubleValue
-30.766

@<SCITEGIC>MOL_PROPERTY
-TS
SciTegic.value.DoubleValue
24.641

@<SCITEGIC>MOL_PROPERTY
U+W
SciTegic.value.DoubleValue
-51.334

@<SCITEGIC>MOL_PROPERTY
U
SciTegic.value.DoubleValue
7.838

@<SCITEGIC>MOL_PROPERTY
W
SciTegic.value.DoubleValue
-59.172

@<SCITEGIC>MOL_PROPERTY
W(PB)
SciTegic.value.DoubleValue
-61.677

@<SCITEGIC>MOL_PROPERTY
W(SA)
SciTegic.value.DoubleValue
2.505

@<SCITEGIC>MOL_PROPERTY
Valence
SciTegic.value.DoubleValue
8.536

@<SCITEGIC>MOL_PROPERTY
Coulomb
SciTegic.value.DoubleValue
-1.810

@<SCITEGIC>MOL_PROPERTY
VdW
SciTegic.value.DoubleValue
1.112

@<SCITEGIC>MOL_PROPERTY
VdW6
SciTegic.value.DoubleValue
-8.987

@<SCITEGIC>MOL_PROPERTY
VdW12
SciTegic.value.DoubleValue
10.099

@<SCITEGIC>MOL_PROPERTY
Bond
SciTegic.value.DoubleValue
0.183

@<SCITEGIC>MOL_PROPERTY
Angle
SciTegic.value.DoubleValue
2.701

@<SCITEGIC>MOL_PROPERTY
Pdih
SciTegic.value.DoubleValue
5.652

@<SCITEGIC>MOL_PROPERTY
Idih
SciTegic.value.DoubleValue
0.001

@<SCITEGIC>MOL_PROPERTY
Tether
SciTegic.value.DoubleValue
0.000

@<TRIPOS>MOLECULE
guest-8_vm2.mol2 : vm2 ligand conformer 21
          25          24           1
SMALL
USER_CHARGES
 
@<TRIPOS>ATOM
       1    C1      20.083760   18.972721   27.438601 C.2        1 MOL1         0.6168
       2    O1      21.068652   18.435084   27.905087 O.co2      1 MOL1        -0.6703
       3    O2      18.946405   18.689508   27.759338 O.co2      1 MOL1        -0.6703
       4    C2      20.285612   20.047795   26.376683 C.3        1 MOL1        -0.1963
       5    H1      21.223583   20.571611   26.596616 H          1 MOL1         0.0750
       6    H2      19.474679   20.779544   26.474207 H          1 MOL1         0.0750
       7    C3      20.317186   19.473977   24.938658 C.3        1 MOL1        -0.1860
       8    H3      21.127957   18.736562   24.859944 H          1 MOL1         0.0752
       9    H4      19.377641   18.938132   24.749570 H          1 MOL1         0.0752
      10    C4      20.518237   20.584896   23.882009 C.3        1 MOL1        -0.1858
      11    H5      21.423003   21.156047   24.131216 H          1 MOL1         0.0752
      12    H6      19.680707   21.294492   23.926195 H          1 MOL1         0.0752
      13    C5      20.662319   20.042728   22.440098 C.3        1 MOL1        -0.1858
      14    H7      20.913093   20.880818   21.775796 H          1 MOL1         0.0752
      15    H8      21.510887   19.347313   22.399342 H          1 MOL1         0.0752
      16    C6      19.382183   19.348486   21.913948 C.3        1 MOL1        -0.1858
      17    H9      18.522034   20.011963   22.076983 H          1 MOL1         0.0752
      18    H10     19.185783   18.434361   22.489249 H          1 MOL1         0.0752
      19    C7      19.452807   18.994585   20.410191 C.3        1 MOL1        -0.1834
      20    H11     18.475062   18.606826   20.092598 H          1 MOL1         0.0752
      21    H12     19.630974   19.905557   19.822265 H          1 MOL1         0.0752
      22    C8      20.535836   17.944222   20.081388 C.3        1 MOL1        -0.2849
      23    H13     21.542790   18.332014   20.280079 H          1 MOL1         0.0764
      24    H14     20.393511   17.033443   20.677501 H          1 MOL1         0.0764
      25    H15     20.490440   17.664751   19.020863 H          1 MOL1         0.0764
@<TRIPOS>BOND
    1     1     2    1
    2     1     3    2
    3     1     4    1
    4     4     5    1
    5     4     6    1
    6     4     7    1
    7     7     8    1
    8     7     9    1
    9     7    10    1
   10    10    11    1
   11    10    12    1
   12    10    13    1
   13    13    14    1
   14    13    15    1
   15    13    16    1
   16    16    17    1
   17    16    18    1
   18    16    19    1
   19    19    20    1
   20    19    21    1
   21    19    22    1
   22    22    23    1
   23    22    24    1
   24    22    25    1
@<TRIPOS>SUBSTRUCTURE
       1 MOL1            1 RESIDUE      1      MOL     
@<SCITEGIC>MOL_PROPERTY
VM2 Rank
SciTegic.value.IntegerValue
21

@<SCITEGIC>MOL_PROPERTY
Conf_Id
SciTegic.value.IntegerValue
190

@<SCITEGIC>MOL_PROPERTY
Probability
SciTegic.value.DoubleValue
1.08

@<SCITEGIC>MOL_PROPERTY
Sum Probability
SciTegic.value.DoubleValue
80.58

@<SCITEGIC>MOL_PROPERTY
Delta G
SciTegic.value.DoubleValue
1.838

@<SCITEGIC>MOL_PROPERTY
G
SciTegic.value.DoubleValue
-6.124

@<SCITEGIC>MOL_PROPERTY
E
SciTegic.value.DoubleValue
-30.766

@<SCITEGIC>MOL_PROPERTY
-TS
SciTegic.value.DoubleValue
24.642

@<SCITEGIC>MOL_PROPERTY
U+W
SciTegic.value.DoubleValue
-51.334

@<SCITEGIC>MOL_PROPERTY
U
SciTegic.value.DoubleValue
7.838

@<SCITEGIC>MOL_PROPERTY
W
SciTegic.value.DoubleValue
-59.172

@<SCITEGIC>MOL_PROPERTY
W(PB)
SciTegic.value.DoubleValue
-61.666

@<SCITEGIC>MOL_PROPERTY
W(SA)
SciTegic.value.DoubleValue
2.494

@<SCITEGIC>MOL_PROPERTY
Valence
SciTegic.value.DoubleValue
8.536

@<SCITEGIC>MOL_PROPERTY
Coulomb
SciTegic.value.DoubleValue
-1.810

@<SCITEGIC>MOL_PROPERTY
VdW
SciTegic.value.DoubleValue
1.112

@<SCITEGIC>MOL_PROPERTY
VdW6
SciTegic.value.DoubleValue
-8.988

@<SCITEGIC>MOL_PROPERTY
VdW12
SciTegic.value.DoubleValue
10.100

@<SCITEGIC>MOL_PROPERTY
Bond
SciTegic.value.DoubleValue
0.183

@<SCITEGIC>MOL_PROPERTY
Angle
SciTegic.value.DoubleValue
2.701

@<SCITEGIC>MOL_PROPERTY
Pdih
SciTegic.value.DoubleValue
5.652

@<SCITEGIC>MOL_PROPERTY
Idih
SciTegic.value.DoubleValue
0.001

@<SCITEGIC>MOL_PROPERTY
Tether
SciTegic.value.DoubleValue
0.000

@<TRIPOS>MOLECULE
guest-8_vm2.mol2 : vm2 ligand conformer 22
          25          24           1
SMALL
USER_CHARGES
 
@<TRIPOS>ATOM
       1    C1      20.671121   19.501635   27.038320 C.2        1 MOL1         0.6168
       2    O1      21.539292   20.328418   26.839827 O.co2      1 MOL1        -0.6703
       3    O2      20.186771   19.283323   28.131291 O.co2      1 MOL1        -0.6703
       4    C2      20.144296   18.709997   25.846875 C.3        1 MOL1        -0.1963
       5    H1      19.842765   17.717764   26.202935 H          1 MOL1         0.0750
       6    H2      20.976265   18.567070   25.147933 H          1 MOL1         0.0750
       7    C3      18.954405   19.409950   25.140711 C.3        1 MOL1        -0.1860
       8    H3      18.175988   19.621043   25.886878 H          1 MOL1         0.0752
       9    H4      19.278251   20.386463   24.756854 H          1 MOL1         0.0752
      10    C4      18.328478   18.568253   24.000123 C.3        1 MOL1        -0.1858
      11    H5      17.481023   19.123967   23.576116 H          1 MOL1         0.0752
      12    H6      17.904339   17.649762   24.428192 H          1 MOL1         0.0752
      13    C5      19.297173   18.180748   22.854478 C.3        1 MOL1        -0.1858
      14    H7      20.091436   17.527729   23.239124 H          1 MOL1         0.0752
      15    H8      18.741121   17.581875   22.120387 H          1 MOL1         0.0752
      16    C6      19.924082   19.398603   22.137265 C.3        1 MOL1        -0.1858
      17    H9      20.546226   19.966743   22.841327 H          1 MOL1         0.0752
      18    H10     19.127643   20.073249   21.794867 H          1 MOL1         0.0752
      19    C7      20.789162   18.968814   20.933742 C.3        1 MOL1        -0.1834
      20    H11     21.585413   18.292088   21.273539 H          1 MOL1         0.0752
      21    H12     20.174949   18.405377   20.217736 H          1 MOL1         0.0752
      22    C8      21.418219   20.184261   20.223368 C.3        1 MOL1        -0.2849
      23    H13     22.029429   19.860630   19.370888 H          1 MOL1         0.0764
      24    H14     20.642481   20.863364   19.846004 H          1 MOL1         0.0764
      25    H15     22.064097   20.748654   20.908720 H          1 MOL1         0.0764
@<TRIPOS>BOND
    1     1     2    1
    2     1     3    2
    3     1     4    1
    4     4     5    1
    5     4     6    1
    6     4     7    1
    7     7     8    1
    8     7     9    1
    9     7    10    1
   10    10    11    1
   11    10    12    1
   12    10    13    1
   13    13    14    1
   14    13    15    1
   15    13    16    1
   16    16    17    1
   17    16    18    1
   18    16    19    1
   19    19    20    1
   20    19    21    1
   21    19    22    1
   22    22    23    1
   23    22    24    1
   24    22    25    1
@<TRIPOS>SUBSTRUCTURE
       1 MOL1            1 RESIDUE      1      MOL     
@<SCITEGIC>MOL_PROPERTY
VM2 Rank
SciTegic.value.IntegerValue
22

@<SCITEGIC>MOL_PROPERTY
Conf_Id
SciTegic.value.IntegerValue
1017

@<SCITEGIC>MOL_PROPERTY
Probability
SciTegic.value.DoubleValue
1.08

@<SCITEGIC>MOL_PROPERTY
Sum Probability
SciTegic.value.DoubleValue
81.65

@<SCITEGIC>MOL_PROPERTY
Delta G
SciTegic.value.DoubleValue
1.839

@<SCITEGIC>MOL_PROPERTY
G
SciTegic.value.DoubleValue
-6.123

@<SCITEGIC>MOL_PROPERTY
E
SciTegic.value.DoubleValue
-30.967

@<SCITEGIC>MOL_PROPERTY
-TS
SciTegic.value.DoubleValue
24.844

@<SCITEGIC>MOL_PROPERTY
U+W
SciTegic.value.DoubleValue
-51.535

@<SCITEGIC>MOL_PROPERTY
U
SciTegic.value.DoubleValue
8.115

@<SCITEGIC>MOL_PROPERTY
W
SciTegic.value.DoubleValue
-59.650

@<SCITEGIC>MOL_PROPERTY
W(PB)
SciTegic.value.DoubleValue
-62.101

@<SCITEGIC>MOL_PROPERTY
W(SA)
SciTegic.value.DoubleValue
2.451

@<SCITEGIC>MOL_PROPERTY
Valence
SciTegic.value.DoubleValue
8.487

@<SCITEGIC>MOL_PROPERTY
Coulomb
SciTegic.value.DoubleValue
-1.260

@<SCITEGIC>MOL_PROPERTY
VdW
SciTegic.value.DoubleValue
0.887

@<SCITEGIC>MOL_PROPERTY
VdW6
SciTegic.value.DoubleValue
-9.448

@<SCITEGIC>MOL_PROPERTY
VdW12
SciTegic.value.DoubleValue
10.335

@<SCITEGIC>MOL_PROPERTY
Bond
SciTegic.value.DoubleValue
0.199

@<SCITEGIC>MOL_PROPERTY
Angle
SciTegic.value.DoubleValue
2.915

@<SCITEGIC>MOL_PROPERTY
Pdih
SciTegic.value.DoubleValue
5.372

@<SCITEGIC>MOL_PROPERTY
Idih
SciTegic.value.DoubleValue
0.001

@<SCITEGIC>MOL_PROPERTY
Tether
SciTegic.value.DoubleValue
0.000

@<TRIPOS>MOLECULE
guest-8_vm2.mol2 : vm2 ligand conformer 23
          25          24           1
SMALL
USER_CHARGES
 
@<TRIPOS>ATOM
       1    C1      20.088380   19.110612   27.539482 C.2        1 MOL1         0.6168
       2    O1      21.157315   18.946287   28.093598 O.co2      1 MOL1        -0.6703
       3    O2      19.070923   18.524063   27.851563 O.co2      1 MOL1        -0.6703
       4    C2      20.025126   20.091434   26.374061 C.3        1 MOL1        -0.1963
       5    H1      20.746110   20.895080   26.566117 H          1 MOL1         0.0750
       6    H2      19.027208   20.546043   26.365158 H          1 MOL1         0.0750
       7    C3      20.319579   19.422667   25.008637 C.3        1 MOL1        -0.1860
       8    H3      21.318047   18.964896   25.037057 H          1 MOL1         0.0752
       9    H4      19.598864   18.609885   24.850191 H          1 MOL1         0.0752
      10    C4      20.244152   20.438437   23.844899 C.3        1 MOL1        -0.1858
      11    H5      20.912462   21.282007   24.065601 H          1 MOL1         0.0752
      12    H6      19.229551   20.854835   23.780377 H          1 MOL1         0.0752
      13    C5      20.647277   19.842101   22.475020 C.3        1 MOL1        -0.1858
      14    H7      20.707235   20.665249   21.751801 H          1 MOL1         0.0752
      15    H8      21.656258   19.413238   22.543019 H          1 MOL1         0.0752
      16    C6      19.657956   18.771062   21.952724 C.3        1 MOL1        -0.1858
      17    H9      18.648427   19.199168   21.887904 H          1 MOL1         0.0752
      18    H10     19.600500   17.944619   22.672262 H          1 MOL1         0.0752
      19    C7      20.058888   18.181856   20.579941 C.3        1 MOL1        -0.1834
      20    H11     21.073002   17.762885   20.637696 H          1 MOL1         0.0752
      21    H12     19.389352   17.341742   20.349335 H          1 MOL1         0.0752
      22    C8      19.983404   19.205481   19.426074 C.3        1 MOL1        -0.2849
      23    H13     20.724062   20.005269   19.549246 H          1 MOL1         0.0764
      24    H14     20.182732   18.714731   18.464647 H          1 MOL1         0.0764
      25    H15     18.987122   19.663232   19.371326 H          1 MOL1         0.0764
@<TRIPOS>BOND
    1     1     2    1
    2     1     3    2
    3     1     4    1
    4     4     5    1
    5     4     6    1
    6     4     7    1
    7     7     8    1
    8     7     9    1
    9     7    10    1
   10    10    11    1
   11    10    12    1
   12    10    13    1
   13    13    14    1
   14    13    15    1
   15    13    16    1
   16    16    17    1
   17    16    18    1
   18    16    19    1
   19    19    20    1
   20    19    21    1
   21    19    22    1
   22    22    23    1
   23    22    24    1
   24    22    25    1
@<TRIPOS>SUBSTRUCTURE
       1 MOL1            1 RESIDUE      1      MOL     
@<SCITEGIC>MOL_PROPERTY
VM2 Rank
SciTegic.value.IntegerValue
23

@<SCITEGIC>MOL_PROPERTY
Conf_Id
SciTegic.value.IntegerValue
163

@<SCITEGIC>MOL_PROPERTY
Probability
SciTegic.value.DoubleValue
1.06

@<SCITEGIC>MOL_PROPERTY
Sum Probability
SciTegic.value.DoubleValue
82.71

@<SCITEGIC>MOL_PROPERTY
Delta G
SciTegic.value.DoubleValue
1.847

@<SCITEGIC>MOL_PROPERTY
G
SciTegic.value.DoubleValue
-6.115

@<SCITEGIC>MOL_PROPERTY
E
SciTegic.value.DoubleValue
-30.674

@<SCITEGIC>MOL_PROPERTY
-TS
SciTegic.value.DoubleValue
24.559

@<SCITEGIC>MOL_PROPERTY
U+W
SciTegic.value.DoubleValue
-51.242

@<SCITEGIC>MOL_PROPERTY
U
SciTegic.value.DoubleValue
7.805

@<SCITEGIC>MOL_PROPERTY
W
SciTegic.value.DoubleValue
-59.047

@<SCITEGIC>MOL_PROPERTY
W(PB)
SciTegic.value.DoubleValue
-61.531

@<SCITEGIC>MOL_PROPERTY
W(SA)
SciTegic.value.DoubleValue
2.484

@<SCITEGIC>MOL_PROPERTY
Valence
SciTegic.value.DoubleValue
8.642

@<SCITEGIC>MOL_PROPERTY
Coulomb
SciTegic.value.DoubleValue
-2.028

@<SCITEGIC>MOL_PROPERTY
VdW
SciTegic.value.DoubleValue
1.191

@<SCITEGIC>MOL_PROPERTY
VdW6
SciTegic.value.DoubleValue
-8.891

@<SCITEGIC>MOL_PROPERTY
VdW12
SciTegic.value.DoubleValue
10.082

@<SCITEGIC>MOL_PROPERTY
Bond
SciTegic.value.DoubleValue
0.190

@<SCITEGIC>MOL_PROPERTY
Angle
SciTegic.value.DoubleValue
2.795

@<SCITEGIC>MOL_PROPERTY
Pdih
SciTegic.value.DoubleValue
5.656

@<SCITEGIC>MOL_PROPERTY
Idih
SciTegic.value.DoubleValue
0.001

@<SCITEGIC>MOL_PROPERTY
Tether
SciTegic.value.DoubleValue
0.000

@<TRIPOS>MOLECULE
guest-8_vm2.mol2 : vm2 ligand conformer 24
          25          24           1
SMALL
USER_CHARGES
 
@<TRIPOS>ATOM
       1    C1      20.253221   19.120656   27.537571 C.2        1 MOL1         0.6168
       2    O1      21.341482   18.662837   27.825220 O.co2      1 MOL1        -0.6703
       3    O2      19.225351   18.828125   28.115998 O.co2      1 MOL1        -0.6703
       4    C2      20.169606   20.100260   26.372411 C.3        1 MOL1        -0.1963
       5    H1      21.104106   20.673264   26.341348 H          1 MOL1         0.0750
       6    H2      19.360499   20.810157   26.582041 H          1 MOL1         0.0750
       7    C3      19.927839   19.398683   25.013122 C.3        1 MOL1        -0.1860
       8    H3      20.738543   18.679710   24.837089 H          1 MOL1         0.0752
       9    H4      18.993605   18.822531   25.063688 H          1 MOL1         0.0752
      10    C4      19.852154   20.414477   23.849422 C.3        1 MOL1        -0.1858
      11    H5      20.806681   20.951359   23.762248 H          1 MOL1         0.0752
      12    H6      19.091234   21.170590   24.086599 H          1 MOL1         0.0752
      13    C5      19.493421   19.771571   22.488293 C.3        1 MOL1        -0.1858
      14    H7      18.545998   19.223124   22.578757 H          1 MOL1         0.0752
      15    H8      19.317136   20.580282   21.767790 H          1 MOL1         0.0752
      16    C6      20.593591   18.828243   21.942009 C.3        1 MOL1        -0.1858
      17    H9      20.767636   18.015910   22.658855 H          1 MOL1         0.0752
      18    H10     21.541750   19.375976   21.854781 H          1 MOL1         0.0752
      19    C7      20.236126   18.192759   20.577893 C.3        1 MOL1        -0.1834
      20    H11     20.997455   17.440017   20.330898 H          1 MOL1         0.0752
      21    H12     19.282093   17.653614   20.658153 H          1 MOL1         0.0752
      22    C8      20.160209   19.216389   19.424061 C.3        1 MOL1        -0.2849
      23    H13     21.091920   19.791826   19.347250 H          1 MOL1         0.0764
      24    H14     20.000154   18.703723   18.466740 H          1 MOL1         0.0764
      25    H15     19.330790   19.920335   19.565238 H          1 MOL1         0.0764
@<TRIPOS>BOND
    1     1     2    1
    2     1     3    2
    3     1     4    1
    4     4     5    1
    5     4     6    1
    6     4     7    1
    7     7     8    1
    8     7     9    1
    9     7    10    1
   10    10    11    1
   11    10    12    1
   12    10    13    1
   13    13    14    1
   14    13    15    1
   15    13    16    1
   16    16    17    1
   17    16    18    1
   18    16    19    1
   19    19    20    1
   20    19    21    1
   21    19    22    1
   22    22    23    1
   23    22    24    1
   24    22    25    1
@<TRIPOS>SUBSTRUCTURE
       1 MOL1            1 RESIDUE      1      MOL     
@<SCITEGIC>MOL_PROPERTY
VM2 Rank
SciTegic.value.IntegerValue
24

@<SCITEGIC>MOL_PROPERTY
Conf_Id
SciTegic.value.IntegerValue
1106

@<SCITEGIC>MOL_PROPERTY
Probability
SciTegic.value.DoubleValue
1.05

@<SCITEGIC>MOL_PROPERTY
Sum Probability
SciTegic.value.DoubleValue
83.77

@<SCITEGIC>MOL_PROPERTY
Delta G
SciTegic.value.DoubleValue
1.851

@<SCITEGIC>MOL_PROPERTY
G
SciTegic.value.DoubleValue
-6.111

@<SCITEGIC>MOL_PROPERTY
E
SciTegic.value.DoubleValue
-30.670

@<SCITEGIC>MOL_PROPERTY
-TS
SciTegic.value.DoubleValue
24.558

@<SCITEGIC>MOL_PROPERTY
U+W
SciTegic.value.DoubleValue
-51.237

@<SCITEGIC>MOL_PROPERTY
U
SciTegic.value.DoubleValue
7.805

@<SCITEGIC>MOL_PROPERTY
W
SciTegic.value.DoubleValue
-59.042

@<SCITEGIC>MOL_PROPERTY
W(PB)
SciTegic.value.DoubleValue
-61.534

@<SCITEGIC>MOL_PROPERTY
W(SA)
SciTegic.value.DoubleValue
2.491

@<SCITEGIC>MOL_PROPERTY
Valence
SciTegic.value.DoubleValue
8.642

@<SCITEGIC>MOL_PROPERTY
Coulomb
SciTegic.value.DoubleValue
-2.028

@<SCITEGIC>MOL_PROPERTY
VdW
SciTegic.value.DoubleValue
1.191

@<SCITEGIC>MOL_PROPERTY
VdW6
SciTegic.value.DoubleValue
-8.891

@<SCITEGIC>MOL_PROPERTY
VdW12
SciTegic.value.DoubleValue
10.082

@<SCITEGIC>MOL_PROPERTY
Bond
SciTegic.value.DoubleValue
0.190

@<SCITEGIC>MOL_PROPERTY
Angle
SciTegic.value.DoubleValue
2.795

@<SCITEGIC>MOL_PROPERTY
Pdih
SciTegic.value.DoubleValue
5.656

@<SCITEGIC>MOL_PROPERTY
Idih
SciTegic.value.DoubleValue
0.001

@<SCITEGIC>MOL_PROPERTY
Tether
SciTegic.value.DoubleValue
0.000

@<TRIPOS>MOLECULE
guest-8_vm2.mol2 : vm2 ligand conformer 25
          25          24           1
SMALL
USER_CHARGES
 
@<TRIPOS>ATOM
       1    C1      20.145612   19.475073   27.576064 C.2        1 MOL1         0.6168
       2    O1      21.024473   19.014001   28.277320 O.co2      1 MOL1        -0.6703
       3    O2      19.029061   19.734408   27.979517 O.co2      1 MOL1        -0.6703
       4    C2      20.453807   19.719188   26.103118 C.3        1 MOL1        -0.1963
       5    H1      21.514972   19.981603   26.016940 H          1 MOL1         0.0750
       6    H2      19.875145   20.592725   25.783010 H          1 MOL1         0.0750
       7    C3      20.132001   18.491069   25.212181 C.3        1 MOL1        -0.1860
       8    H3      20.652270   17.614307   25.622170 H          1 MOL1         0.0752
       9    H4      19.057631   18.267641   25.268116 H          1 MOL1         0.0752
      10    C4      20.553323   18.668651   23.733751 C.3        1 MOL1        -0.1858
      11    H5      20.418333   17.705634   23.225352 H          1 MOL1         0.0752
      12    H6      21.625797   18.900724   23.682182 H          1 MOL1         0.0752
      13    C5      19.745609   19.761482   22.990945 C.3        1 MOL1        -0.1858
      14    H7      18.673189   19.528985   23.041364 H          1 MOL1         0.0752
      15    H8      19.879634   20.724035   23.500376 H          1 MOL1         0.0752
      16    C6      20.167317   19.942354   21.512959 C.3        1 MOL1        -0.1858
      17    H9      21.242963   20.159515   21.460918 H          1 MOL1         0.0752
      18    H10     19.652890   20.826160   21.111501 H          1 MOL1         0.0752
      19    C7      19.836815   18.724468   20.620446 C.3        1 MOL1        -0.1834
      20    H11     20.405348   17.845804   20.951687 H          1 MOL1         0.0752
      21    H12     18.771688   18.472600   20.716694 H          1 MOL1         0.0752
      22    C8      20.164981   19.003306   19.139699 C.3        1 MOL1        -0.2849
      23    H13     21.230995   19.231916   19.010366 H          1 MOL1         0.0764
      24    H14     19.928223   18.128837   18.519773 H          1 MOL1         0.0764
      25    H15     19.583341   19.854091   18.761273 H          1 MOL1         0.0764
@<TRIPOS>BOND
    1     1     2    1
    2     1     3    2
    3     1     4    1
    4     4     5    1
    5     4     6    1
    6     4     7    1
    7     7     8    1
    8     7     9    1
    9     7    10    1
   10    10    11    1
   11    10    12    1
   12    10    13    1
   13    13    14    1
   14    13    15    1
   15    13    16    1
   16    16    17    1
   17    16    18    1
   18    16    19    1
   19    19    20    1
   20    19    21    1
   21    19    22    1
   22    22    23    1
   23    22    24    1
   24    22    25    1
@<TRIPOS>SUBSTRUCTURE
       1 MOL1            1 RESIDUE      1      MOL     
@<SCITEGIC>MOL_PROPERTY
VM2 Rank
SciTegic.value.IntegerValue
25

@<SCITEGIC>MOL_PROPERTY
Conf_Id
SciTegic.value.IntegerValue
539

@<SCITEGIC>MOL_PROPERTY
Probability
SciTegic.value.DoubleValue
1.05

@<SCITEGIC>MOL_PROPERTY
Sum Probability
SciTegic.value.DoubleValue
84.82

@<SCITEGIC>MOL_PROPERTY
Delta G
SciTegic.value.DoubleValue
1.852

@<SCITEGIC>MOL_PROPERTY
G
SciTegic.value.DoubleValue
-6.110

@<SCITEGIC>MOL_PROPERTY
E
SciTegic.value.DoubleValue
-30.659

@<SCITEGIC>MOL_PROPERTY
-TS
SciTegic.value.DoubleValue
24.549

@<SCITEGIC>MOL_PROPERTY
U+W
SciTegic.value.DoubleValue
-51.226

@<SCITEGIC>MOL_PROPERTY
U
SciTegic.value.DoubleValue
7.507

@<SCITEGIC>MOL_PROPERTY
W
SciTegic.value.DoubleValue
-58.733

@<SCITEGIC>MOL_PROPERTY
W(PB)
SciTegic.value.DoubleValue
-61.248

@<SCITEGIC>MOL_PROPERTY
W(SA)
SciTegic.value.DoubleValue
2.515

@<SCITEGIC>MOL_PROPERTY
Valence
SciTegic.value.DoubleValue
8.668

@<SCITEGIC>MOL_PROPERTY
Coulomb
SciTegic.value.DoubleValue
-2.355

@<SCITEGIC>MOL_PROPERTY
VdW
SciTegic.value.DoubleValue
1.194

@<SCITEGIC>MOL_PROPERTY
VdW6
SciTegic.value.DoubleValue
-8.929

@<SCITEGIC>MOL_PROPERTY
VdW12
SciTegic.value.DoubleValue
10.123

@<SCITEGIC>MOL_PROPERTY
Bond
SciTegic.value.DoubleValue
0.201

@<SCITEGIC>MOL_PROPERTY
Angle
SciTegic.value.DoubleValue
2.816

@<SCITEGIC>MOL_PROPERTY
Pdih
SciTegic.value.DoubleValue
5.650

@<SCITEGIC>MOL_PROPERTY
Idih
SciTegic.value.DoubleValue
0.001

@<SCITEGIC>MOL_PROPERTY
Tether
SciTegic.value.DoubleValue
0.000

@<TRIPOS>MOLECULE
guest-8_vm2.mol2 : vm2 ligand conformer 26
          25          24           1
SMALL
USER_CHARGES
 
@<TRIPOS>ATOM
       1    C1      19.703881   19.229026   27.220927 C.2        1 MOL1         0.6168
       2    O1      20.410224   18.633965   28.010677 O.co2      1 MOL1        -0.6703
       3    O2      18.489435   19.194572   27.245103 O.co2      1 MOL1        -0.6703
       4    C2      20.379245   20.048969   26.127413 C.3        1 MOL1        -0.1963
       5    H1      21.313392   20.454618   26.533993 H          1 MOL1         0.0750
       6    H2      19.730952   20.901247   25.890937 H          1 MOL1         0.0750
       7    C3      20.665324   19.224849   24.847962 C.3        1 MOL1        -0.1860
       8    H3      21.308089   18.370671   25.101772 H          1 MOL1         0.0752
       9    H4      19.718988   18.813792   24.471924 H          1 MOL1         0.0752
      10    C4      21.343271   20.081135   23.753530 C.3        1 MOL1        -0.1858
      11    H5      22.246264   20.545939   24.172262 H          1 MOL1         0.0752
      12    H6      20.681387   20.908665   23.466436 H          1 MOL1         0.0752
      13    C5      21.751314   19.269510   22.498229 C.3        1 MOL1        -0.1858
      14    H7      22.257534   19.942643   21.793024 H          1 MOL1         0.0752
      15    H8      22.498534   18.518558   22.788776 H          1 MOL1         0.0752
      16    C6      20.589904   18.555150   21.761765 C.3        1 MOL1        -0.1858
      17    H9      20.140818   17.796121   22.415552 H          1 MOL1         0.0752
      18    H10     21.008643   18.008442   20.905916 H          1 MOL1         0.0752
      19    C7      19.495046   19.519781   21.253109 C.3        1 MOL1        -0.1834
      20    H11     19.008407   20.017957   22.102102 H          1 MOL1         0.0752
      21    H12     19.951433   20.306748   20.637101 H          1 MOL1         0.0752
      22    C8      18.425355   18.777043   20.427286 C.3        1 MOL1        -0.2849
      23    H13     17.653704   19.474853   20.077117 H          1 MOL1         0.0764
      24    H14     18.871762   18.296040   19.547147 H          1 MOL1         0.0764
      25    H15     17.933442   18.001935   21.029437 H          1 MOL1         0.0764
@<TRIPOS>BOND
    1     1     2    1
    2     1     3    2
    3     1     4    1
    4     4     5    1
    5     4     6    1
    6     4     7    1
    7     7     8    1
    8     7     9    1
    9     7    10    1
   10    10    11    1
   11    10    12    1
   12    10    13    1
   13    13    14    1
   14    13    15    1
   15    13    16    1
   16    16    17    1
   17    16    18    1
   18    16    19    1
   19    19    20    1
   20    19    21    1
   21    19    22    1
   22    22    23    1
   23    22    24    1
   24    22    25    1
@<TRIPOS>SUBSTRUCTURE
       1 MOL1            1 RESIDUE      1      MOL     
@<SCITEGIC>MOL_PROPERTY
VM2 Rank
SciTegic.value.IntegerValue
26

@<SCITEGIC>MOL_PROPERTY
Conf_Id
SciTegic.value.IntegerValue
183

@<SCITEGIC>MOL_PROPERTY
Probability
SciTegic.value.DoubleValue
1.02

@<SCITEGIC>MOL_PROPERTY
Sum Probability
SciTegic.value.DoubleValue
85.84

@<SCITEGIC>MOL_PROPERTY
Delta G
SciTegic.value.DoubleValue
1.871

@<SCITEGIC>MOL_PROPERTY
G
SciTegic.value.DoubleValue
-6.092

@<SCITEGIC>MOL_PROPERTY
E
SciTegic.value.DoubleValue
-30.923

@<SCITEGIC>MOL_PROPERTY
-TS
SciTegic.value.DoubleValue
24.831

@<SCITEGIC>MOL_PROPERTY
U+W
SciTegic.value.DoubleValue
-51.491

@<SCITEGIC>MOL_PROPERTY
U
SciTegic.value.DoubleValue
8.128

@<SCITEGIC>MOL_PROPERTY
W
SciTegic.value.DoubleValue
-59.619

@<SCITEGIC>MOL_PROPERTY
W(PB)
SciTegic.value.DoubleValue
-62.093

@<SCITEGIC>MOL_PROPERTY
W(SA)
SciTegic.value.DoubleValue
2.474

@<SCITEGIC>MOL_PROPERTY
Valence
SciTegic.value.DoubleValue
8.508

@<SCITEGIC>MOL_PROPERTY
Coulomb
SciTegic.value.DoubleValue
-1.299

@<SCITEGIC>MOL_PROPERTY
VdW
SciTegic.value.DoubleValue
0.920

@<SCITEGIC>MOL_PROPERTY
VdW6
SciTegic.value.DoubleValue
-9.370

@<SCITEGIC>MOL_PROPERTY
VdW12
SciTegic.value.DoubleValue
10.290

@<SCITEGIC>MOL_PROPERTY
Bond
SciTegic.value.DoubleValue
0.193

@<SCITEGIC>MOL_PROPERTY
Angle
SciTegic.value.DoubleValue
2.932

@<SCITEGIC>MOL_PROPERTY
Pdih
SciTegic.value.DoubleValue
5.383

@<SCITEGIC>MOL_PROPERTY
Idih
SciTegic.value.DoubleValue
0.000

@<SCITEGIC>MOL_PROPERTY
Tether
SciTegic.value.DoubleValue
0.000

@<TRIPOS>MOLECULE
guest-8_vm2.mol2 : vm2 ligand conformer 27
          25          24           1
SMALL
USER_CHARGES
 
@<TRIPOS>ATOM
       1    C1      19.773474   19.591070   27.210542 C.2        1 MOL1         0.6168
       2    O1      20.658008   19.923711   27.974528 O.co2      1 MOL1        -0.6703
       3    O2      18.658642   20.074508   27.219800 O.co2      1 MOL1        -0.6703
       4    C2      20.085490   18.520800   26.170657 C.3        1 MOL1        -0.1963
       5    H1      19.165113   17.957844   25.974265 H          1 MOL1         0.0750
       6    H2      20.807040   17.820770   26.608623 H          1 MOL1         0.0750
       7    C3      20.643168   19.109009   24.851184 C.3        1 MOL1        -0.1860
       8    H3      19.912610   19.820216   24.443267 H          1 MOL1         0.0752
       9    H4      21.559285   19.676743   25.064710 H          1 MOL1         0.0752
      10    C4      20.944123   18.004026   23.812407 C.3        1 MOL1        -0.1858
      11    H5      20.019801   17.466177   23.564087 H          1 MOL1         0.0752
      12    H6      21.615055   17.261444   24.265390 H          1 MOL1         0.0752
      13    C5      21.610527   18.536786   22.518928 C.3        1 MOL1        -0.1858
      14    H7      22.585804   18.972165   22.775764 H          1 MOL1         0.0752
      15    H8      21.823880   17.686531   21.856941 H          1 MOL1         0.0752
      16    C6      20.788688   19.589150   21.732371 C.3        1 MOL1        -0.1858
      17    H9      21.371047   19.894055   20.852258 H          1 MOL1         0.0752
      18    H10     20.659787   20.495117   22.338878 H          1 MOL1         0.0752
      19    C7      19.408989   19.072562   21.265967 C.3        1 MOL1        -0.1834
      20    H11     19.534718   18.140059   20.698779 H          1 MOL1         0.0752
      21    H12     18.781478   18.837432   22.135870 H          1 MOL1         0.0752
      22    C8      18.681890   20.112376   20.389615 C.3        1 MOL1        -0.2849
      23    H13     19.265319   20.344766   19.489119 H          1 MOL1         0.0764
      24    H14     17.702912   19.732121   20.070227 H          1 MOL1         0.0764
      25    H15     18.518653   21.046299   20.943237 H          1 MOL1         0.0764
@<TRIPOS>BOND
    1     1     2    1
    2     1     3    2
    3     1     4    1
    4     4     5    1
    5     4     6    1
    6     4     7    1
    7     7     8    1
    8     7     9    1
    9     7    10    1
   10    10    11    1
   11    10    12    1
   12    10    13    1
   13    13    14    1
   14    13    15    1
   15    13    16    1
   16    16    17    1
   17    16    18    1
   18    16    19    1
   19    19    20    1
   20    19    21    1
   21    19    22    1
   22    22    23    1
   23    22    24    1
   24    22    25    1
@<TRIPOS>SUBSTRUCTURE
       1 MOL1            1 RESIDUE      1      MOL     
@<SCITEGIC>MOL_PROPERTY
VM2 Rank
SciTegic.value.IntegerValue
27

@<SCITEGIC>MOL_PROPERTY
Conf_Id
SciTegic.value.IntegerValue
78

@<SCITEGIC>MOL_PROPERTY
Probability
SciTegic.value.DoubleValue
0.96

@<SCITEGIC>MOL_PROPERTY
Sum Probability
SciTegic.value.DoubleValue
86.80

@<SCITEGIC>MOL_PROPERTY
Delta G
SciTegic.value.DoubleValue
1.909

@<SCITEGIC>MOL_PROPERTY
G
SciTegic.value.DoubleValue
-6.054

@<SCITEGIC>MOL_PROPERTY
E
SciTegic.value.DoubleValue
-30.885

@<SCITEGIC>MOL_PROPERTY
-TS
SciTegic.value.DoubleValue
24.831

@<SCITEGIC>MOL_PROPERTY
U+W
SciTegic.value.DoubleValue
-51.453

@<SCITEGIC>MOL_PROPERTY
U
SciTegic.value.DoubleValue
8.128

@<SCITEGIC>MOL_PROPERTY
W
SciTegic.value.DoubleValue
-59.581

@<SCITEGIC>MOL_PROPERTY
W(PB)
SciTegic.value.DoubleValue
-62.037

@<SCITEGIC>MOL_PROPERTY
W(SA)
SciTegic.value.DoubleValue
2.456

@<SCITEGIC>MOL_PROPERTY
Valence
SciTegic.value.DoubleValue
8.508

@<SCITEGIC>MOL_PROPERTY
Coulomb
SciTegic.value.DoubleValue
-1.299

@<SCITEGIC>MOL_PROPERTY
VdW
SciTegic.value.DoubleValue
0.920

@<SCITEGIC>MOL_PROPERTY
VdW6
SciTegic.value.DoubleValue
-9.370

@<SCITEGIC>MOL_PROPERTY
VdW12
SciTegic.value.DoubleValue
10.290

@<SCITEGIC>MOL_PROPERTY
Bond
SciTegic.value.DoubleValue
0.192

@<SCITEGIC>MOL_PROPERTY
Angle
SciTegic.value.DoubleValue
2.932

@<SCITEGIC>MOL_PROPERTY
Pdih
SciTegic.value.DoubleValue
5.383

@<SCITEGIC>MOL_PROPERTY
Idih
SciTegic.value.DoubleValue
0.001

@<SCITEGIC>MOL_PROPERTY
Tether
SciTegic.value.DoubleValue
0.000

@<TRIPOS>MOLECULE
guest-8_vm2.mol2 : vm2 ligand conformer 28
          25          24           1
SMALL
USER_CHARGES
 
@<TRIPOS>ATOM
       1    C1      20.411081   19.256618   27.522444 C.2        1 MOL1         0.6168
       2    O1      21.511410   19.671509   27.828705 O.co2      1 MOL1        -0.6703
       3    O2      19.433621   19.348116   28.238593 O.co2      1 MOL1        -0.6703
       4    C2      20.242827   18.604217   26.154912 C.3        1 MOL1        -0.1963
       5    H1      19.469813   17.830953   26.239056 H          1 MOL1         0.0750
       6    H2      21.181881   18.097828   25.901256 H          1 MOL1         0.0750
       7    C3      19.866120   19.618317   25.046870 C.3        1 MOL1        -0.1860
       8    H3      18.931309   20.125977   25.322359 H          1 MOL1         0.0752
       9    H4      20.643311   20.392638   24.983977 H          1 MOL1         0.0752
      10    C4      19.702282   18.933621   23.672597 C.3        1 MOL1        -0.1858
      11    H5      18.923018   18.161996   23.736641 H          1 MOL1         0.0752
      12    H6      20.639058   18.424375   23.410993 H          1 MOL1         0.0752
      13    C5      19.332660   19.950667   22.568484 C.3        1 MOL1        -0.1858
      14    H7      18.436989   20.505213   22.879810 H          1 MOL1         0.0752
      15    H8      20.132103   20.696406   22.468126 H          1 MOL1         0.0752
      16    C6      19.045660   19.294697   21.194205 C.3        1 MOL1        -0.1858
      17    H9      18.741983   20.078386   20.486900 H          1 MOL1         0.0752
      18    H10     18.180574   18.625062   21.293760 H          1 MOL1         0.0752
      19    C7      20.224102   18.498175   20.581193 C.3        1 MOL1        -0.1834
      20    H11     20.477539   17.643055   21.221610 H          1 MOL1         0.0752
      21    H12     19.896809   18.072236   19.622810 H          1 MOL1         0.0752
      22    C8      21.483236   19.358063   20.337998 C.3        1 MOL1        -0.2849
      23    H13     21.913652   19.710750   21.283740 H          1 MOL1         0.0764
      24    H14     22.253864   18.773072   19.819645 H          1 MOL1         0.0764
      25    H15     21.247942   20.232993   19.718231 H          1 MOL1         0.0764
@<TRIPOS>BOND
    1     1     2    1
    2     1     3    2
    3     1     4    1
    4     4     5    1
    5     4     6    1
    6     4     7    1
    7     7     8    1
    8     7     9    1
    9     7    10    1
   10    10    11    1
   11    10    12    1
   12    10    13    1
   13    13    14    1
   14    13    15    1
   15    13    16    1
   16    16    17    1
   17    16    18    1
   18    16    19    1
   19    19    20    1
   20    19    21    1
   21    19    22    1
   22    22    23    1
   23    22    24    1
   24    22    25    1
@<TRIPOS>SUBSTRUCTURE
       1 MOL1            1 RESIDUE      1      MOL     
@<SCITEGIC>MOL_PROPERTY
VM2 Rank
SciTegic.value.IntegerValue
28

@<SCITEGIC>MOL_PROPERTY
Conf_Id
SciTegic.value.IntegerValue
1057

@<SCITEGIC>MOL_PROPERTY
Probability
SciTegic.value.DoubleValue
0.90

@<SCITEGIC>MOL_PROPERTY
Sum Probability
SciTegic.value.DoubleValue
87.70

@<SCITEGIC>MOL_PROPERTY
Delta G
SciTegic.value.DoubleValue
1.943

@<SCITEGIC>MOL_PROPERTY
G
SciTegic.value.DoubleValue
-6.019

@<SCITEGIC>MOL_PROPERTY
E
SciTegic.value.DoubleValue
-30.820

@<SCITEGIC>MOL_PROPERTY
-TS
SciTegic.value.DoubleValue
24.801

@<SCITEGIC>MOL_PROPERTY
U+W
SciTegic.value.DoubleValue
-51.388

@<SCITEGIC>MOL_PROPERTY
U
SciTegic.value.DoubleValue
7.567

@<SCITEGIC>MOL_PROPERTY
W
SciTegic.value.DoubleValue
-58.954

@<SCITEGIC>MOL_PROPERTY
W(PB)
SciTegic.value.DoubleValue
-61.392

@<SCITEGIC>MOL_PROPERTY
W(SA)
SciTegic.value.DoubleValue
2.438

@<SCITEGIC>MOL_PROPERTY
Valence
SciTegic.value.DoubleValue
8.483

@<SCITEGIC>MOL_PROPERTY
Coulomb
SciTegic.value.DoubleValue
-1.912

@<SCITEGIC>MOL_PROPERTY
VdW
SciTegic.value.DoubleValue
0.996

@<SCITEGIC>MOL_PROPERTY
VdW6
SciTegic.value.DoubleValue
-9.207

@<SCITEGIC>MOL_PROPERTY
VdW12
SciTegic.value.DoubleValue
10.202

@<SCITEGIC>MOL_PROPERTY
Bond
SciTegic.value.DoubleValue
0.188

@<SCITEGIC>MOL_PROPERTY
Angle
SciTegic.value.DoubleValue
2.901

@<SCITEGIC>MOL_PROPERTY
Pdih
SciTegic.value.DoubleValue
5.393

@<SCITEGIC>MOL_PROPERTY
Idih
SciTegic.value.DoubleValue
0.001

@<SCITEGIC>MOL_PROPERTY
Tether
SciTegic.value.DoubleValue
0.000

@<TRIPOS>MOLECULE
guest-8_vm2.mol2 : vm2 ligand conformer 29
          25          24           1
SMALL
USER_CHARGES
 
@<TRIPOS>ATOM
       1    C1      19.915245   19.225039   27.528143 C.2        1 MOL1         0.6168
       2    O1      20.889516   19.440923   28.221583 O.co2      1 MOL1        -0.6703
       3    O2      18.778551   19.497381   27.860424 O.co2      1 MOL1        -0.6703
       4    C2      20.133218   18.597246   26.156122 C.3        1 MOL1        -0.1963
       5    H1      19.260230   17.975710   25.923361 H          1 MOL1         0.0750
       6    H2      20.999621   17.928167   26.221302 H          1 MOL1         0.0750
       7    C3      20.352938   19.649311   25.041246 C.3        1 MOL1        -0.1860
       8    H3      19.482732   20.318919   24.997408 H          1 MOL1         0.0752
       9    H4      21.222046   20.271622   25.295938 H          1 MOL1         0.0752
      10    C4      20.570493   18.988928   23.662536 C.3        1 MOL1        -0.1858
      11    H5      19.699971   18.364786   23.421786 H          1 MOL1         0.0752
      12    H6      21.442460   18.322283   23.707470 H          1 MOL1         0.0752
      13    C5      20.782833   20.043022   22.551740 C.3        1 MOL1        -0.1858
      14    H7      19.893261   20.681324   22.470876 H          1 MOL1         0.0752
      15    H8      21.607944   20.707022   22.843232 H          1 MOL1         0.0752
      16    C6      21.118979   19.426727   21.170256 C.3        1 MOL1        -0.1858
      17    H9      22.064062   18.872352   21.248891 H          1 MOL1         0.0752
      18    H10     21.304455   20.241557   20.457293 H          1 MOL1         0.0752
      19    C7      20.037268   18.486278   20.583385 C.3        1 MOL1        -0.1834
      20    H11     20.393760   18.103901   19.617080 H          1 MOL1         0.0752
      21    H12     19.909181   17.606850   21.228207 H          1 MOL1         0.0752
      22    C8      18.673958   19.179145   20.370565 C.3        1 MOL1        -0.2849
      23    H13     18.781992   20.075893   19.746748 H          1 MOL1         0.0764
      24    H14     17.971982   18.500334   19.869350 H          1 MOL1         0.0764
      25    H15     18.224250   19.475852   21.326495 H          1 MOL1         0.0764
@<TRIPOS>BOND
    1     1     2    1
    2     1     3    2
    3     1     4    1
    4     4     5    1
    5     4     6    1
    6     4     7    1
    7     7     8    1
    8     7     9    1
    9     7    10    1
   10    10    11    1
   11    10    12    1
   12    10    13    1
   13    13    14    1
   14    13    15    1
   15    13    16    1
   16    16    17    1
   17    16    18    1
   18    16    19    1
   19    19    20    1
   20    19    21    1
   21    19    22    1
   22    22    23    1
   23    22    24    1
   24    22    25    1
@<TRIPOS>SUBSTRUCTURE
       1 MOL1            1 RESIDUE      1      MOL     
@<SCITEGIC>MOL_PROPERTY
VM2 Rank
SciTegic.value.IntegerValue
29

@<SCITEGIC>MOL_PROPERTY
Conf_Id
SciTegic.value.IntegerValue
1080

@<SCITEGIC>MOL_PROPERTY
Probability
SciTegic.value.DoubleValue
0.87

@<SCITEGIC>MOL_PROPERTY
Sum Probability
SciTegic.value.DoubleValue
88.57

@<SCITEGIC>MOL_PROPERTY
Delta G
SciTegic.value.DoubleValue
1.964

@<SCITEGIC>MOL_PROPERTY
G
SciTegic.value.DoubleValue
-5.998

@<SCITEGIC>MOL_PROPERTY
E
SciTegic.value.DoubleValue
-30.800

@<SCITEGIC>MOL_PROPERTY
-TS
SciTegic.value.DoubleValue
24.802

@<SCITEGIC>MOL_PROPERTY
U+W
SciTegic.value.DoubleValue
-51.367

@<SCITEGIC>MOL_PROPERTY
U
SciTegic.value.DoubleValue
7.567

@<SCITEGIC>MOL_PROPERTY
W
SciTegic.value.DoubleValue
-58.933

@<SCITEGIC>MOL_PROPERTY
W(PB)
SciTegic.value.DoubleValue
-61.396

@<SCITEGIC>MOL_PROPERTY
W(SA)
SciTegic.value.DoubleValue
2.463

@<SCITEGIC>MOL_PROPERTY
Valence
SciTegic.value.DoubleValue
8.483

@<SCITEGIC>MOL_PROPERTY
Coulomb
SciTegic.value.DoubleValue
-1.912

@<SCITEGIC>MOL_PROPERTY
VdW
SciTegic.value.DoubleValue
0.996

@<SCITEGIC>MOL_PROPERTY
VdW6
SciTegic.value.DoubleValue
-9.207

@<SCITEGIC>MOL_PROPERTY
VdW12
SciTegic.value.DoubleValue
10.203

@<SCITEGIC>MOL_PROPERTY
Bond
SciTegic.value.DoubleValue
0.188

@<SCITEGIC>MOL_PROPERTY
Angle
SciTegic.value.DoubleValue
2.901

@<SCITEGIC>MOL_PROPERTY
Pdih
SciTegic.value.DoubleValue
5.392

@<SCITEGIC>MOL_PROPERTY
Idih
SciTegic.value.DoubleValue
0.001

@<SCITEGIC>MOL_PROPERTY
Tether
SciTegic.value.DoubleValue
0.000

@<TRIPOS>MOLECULE
guest-8_vm2.mol2 : vm2 ligand conformer 30
          25          24           1
SMALL
USER_CHARGES
 
@<TRIPOS>ATOM
       1    C1      20.245346   18.985723   27.270737 C.2        1 MOL1         0.6168
       2    O1      21.379854   18.709057   27.607537 O.co2      1 MOL1        -0.6703
       3    O2      19.298952   18.237290   27.416228 O.co2      1 MOL1        -0.6703
       4    C2      19.994731   20.355831   26.647050 C.3        1 MOL1        -0.1963
       5    H1      20.520352   21.096615   27.261002 H          1 MOL1         0.0750
       6    H2      18.924503   20.583767   26.721179 H          1 MOL1         0.0750
       7    C3      20.466996   20.474101   25.174665 C.3        1 MOL1        -0.1860
       8    H3      20.376268   21.520800   24.854167 H          1 MOL1         0.0752
       9    H4      21.533315   20.215679   25.112611 H          1 MOL1         0.0752
      10    C4      19.654054   19.575547   24.215713 C.3        1 MOL1        -0.1858
      11    H5      18.587670   19.828482   24.291916 H          1 MOL1         0.0752
      12    H6      19.754351   18.524195   24.519038 H          1 MOL1         0.0752
      13    C5      20.119594   19.733008   22.751951 C.3        1 MOL1        -0.1858
      14    H7      20.014617   20.782252   22.444078 H          1 MOL1         0.0752
      15    H8      21.186672   19.483925   22.685714 H          1 MOL1         0.0752
      16    C6      19.308037   18.830264   21.794223 C.3        1 MOL1        -0.1858
      17    H9      18.237989   19.042330   21.924301 H          1 MOL1         0.0752
      18    H10     19.451731   17.776229   22.068622 H          1 MOL1         0.0752
      19    C7      19.670860   19.031026   20.304375 C.3        1 MOL1        -0.1834
      20    H11     18.973526   18.445141   19.689803 H          1 MOL1         0.0752
      21    H12     19.522009   20.083147   20.024738 H          1 MOL1         0.0752
      22    C8      21.114576   18.602154   19.963521 C.3        1 MOL1        -0.2849
      23    H13     21.296164   17.561440   20.261956 H          1 MOL1         0.0764
      24    H14     21.293157   18.679982   18.883263 H          1 MOL1         0.0764
      25    H15     21.851592   19.239046   20.468376 H          1 MOL1         0.0764
@<TRIPOS>BOND
    1     1     2    1
    2     1     3    2
    3     1     4    1
    4     4     5    1
    5     4     6    1
    6     4     7    1
    7     7     8    1
    8     7     9    1
    9     7    10    1
   10    10    11    1
   11    10    12    1
   12    10    13    1
   13    13    14    1
   14    13    15    1
   15    13    16    1
   16    16    17    1
   17    16    18    1
   18    16    19    1
   19    19    20    1
   20    19    21    1
   21    19    22    1
   22    22    23    1
   23    22    24    1
   24    22    25    1
@<TRIPOS>SUBSTRUCTURE
       1 MOL1            1 RESIDUE      1      MOL     
@<SCITEGIC>MOL_PROPERTY
VM2 Rank
SciTegic.value.IntegerValue
30

@<SCITEGIC>MOL_PROPERTY
Conf_Id
SciTegic.value.IntegerValue
468

@<SCITEGIC>MOL_PROPERTY
Probability
SciTegic.value.DoubleValue
0.55

@<SCITEGIC>MOL_PROPERTY
Sum Probability
SciTegic.value.DoubleValue
89.12

@<SCITEGIC>MOL_PROPERTY
Delta G
SciTegic.value.DoubleValue
2.244

@<SCITEGIC>MOL_PROPERTY
G
SciTegic.value.DoubleValue
-5.718

@<SCITEGIC>MOL_PROPERTY
E
SciTegic.value.DoubleValue
-30.540

@<SCITEGIC>MOL_PROPERTY
-TS
SciTegic.value.DoubleValue
24.822

@<SCITEGIC>MOL_PROPERTY
U+W
SciTegic.value.DoubleValue
-51.107

@<SCITEGIC>MOL_PROPERTY
U
SciTegic.value.DoubleValue
8.783

@<SCITEGIC>MOL_PROPERTY
W
SciTegic.value.DoubleValue
-59.890

@<SCITEGIC>MOL_PROPERTY
W(PB)
SciTegic.value.DoubleValue
-62.358

@<SCITEGIC>MOL_PROPERTY
W(SA)
SciTegic.value.DoubleValue
2.468

@<SCITEGIC>MOL_PROPERTY
Valence
SciTegic.value.DoubleValue
8.287

@<SCITEGIC>MOL_PROPERTY
Coulomb
SciTegic.value.DoubleValue
-0.381

@<SCITEGIC>MOL_PROPERTY
VdW
SciTegic.value.DoubleValue
0.877

@<SCITEGIC>MOL_PROPERTY
VdW6
SciTegic.value.DoubleValue
-9.131

@<SCITEGIC>MOL_PROPERTY
VdW12
SciTegic.value.DoubleValue
10.007

@<SCITEGIC>MOL_PROPERTY
Bond
SciTegic.value.DoubleValue
0.167

@<SCITEGIC>MOL_PROPERTY
Angle
SciTegic.value.DoubleValue
2.661

@<SCITEGIC>MOL_PROPERTY
Pdih
SciTegic.value.DoubleValue
5.459

@<SCITEGIC>MOL_PROPERTY
Idih
SciTegic.value.DoubleValue
0.000

@<SCITEGIC>MOL_PROPERTY
Tether
SciTegic.value.DoubleValue
0.000

@<TRIPOS>MOLECULE
guest-8_vm2.mol2 : vm2 ligand conformer 31
          25          24           1
SMALL
USER_CHARGES
 
@<TRIPOS>ATOM
       1    C1      19.908723   19.596381   27.147281 C.2        1 MOL1         0.6168
       2    O1      20.883772   20.197150   27.553997 O.co2      1 MOL1        -0.6703
       3    O2      18.778030   20.039719   27.192658 O.co2      1 MOL1        -0.6703
       4    C2      20.110417   18.200057   26.565449 C.3        1 MOL1        -0.1963
       5    H1      19.334326   17.552251   26.989728 H          1 MOL1         0.0750
       6    H2      21.074447   17.811155   26.914987 H          1 MOL1         0.0750
       7    C3      20.039940   18.147488   25.017169 C.3        1 MOL1        -0.1860
       8    H3      20.063561   17.097970   24.694336 H          1 MOL1         0.0752
       9    H4      19.075467   18.558812   24.691169 H          1 MOL1         0.0752
      10    C4      21.203617   18.915095   24.345311 C.3        1 MOL1        -0.1858
      11    H5      22.155597   18.547814   24.752357 H          1 MOL1         0.0752
      12    H6      21.147019   19.981103   24.605591 H          1 MOL1         0.0752
      13    C5      21.235547   18.761577   22.806111 C.3        1 MOL1        -0.1858
      14    H7      22.154001   19.231706   22.428911 H          1 MOL1         0.0752
      15    H8      21.301149   17.696865   22.543563 H          1 MOL1         0.0752
      16    C6      20.017710   19.399321   22.098167 C.3        1 MOL1        -0.1858
      17    H9      19.922907   20.449672   22.405847 H          1 MOL1         0.0752
      18    H10     19.095619   18.890139   22.407056 H          1 MOL1         0.0752
      19    C7      20.146055   19.322107   20.562160 C.3        1 MOL1        -0.1834
      20    H11     21.062117   19.836452   20.240128 H          1 MOL1         0.0752
      21    H12     20.242925   18.272629   20.251238 H          1 MOL1         0.0752
      22    C8      18.929189   19.955107   19.857696 C.3        1 MOL1        -0.2849
      23    H13     18.826527   21.014421   20.127317 H          1 MOL1         0.0764
      24    H14     19.037311   19.891868   18.767115 H          1 MOL1         0.0764
      25    H15     18.001305   19.438858   20.136805 H          1 MOL1         0.0764
@<TRIPOS>BOND
    1     1     2    1
    2     1     3    2
    3     1     4    1
    4     4     5    1
    5     4     6    1
    6     4     7    1
    7     7     8    1
    8     7     9    1
    9     7    10    1
   10    10    11    1
   11    10    12    1
   12    10    13    1
   13    13    14    1
   14    13    15    1
   15    13    16    1
   16    16    17    1
   17    16    18    1
   18    16    19    1
   19    19    20    1
   20    19    21    1
   21    19    22    1
   22    22    23    1
   23    22    24    1
   24    22    25    1
@<TRIPOS>SUBSTRUCTURE
       1 MOL1            1 RESIDUE      1      MOL     
@<SCITEGIC>MOL_PROPERTY
VM2 Rank
SciTegic.value.IntegerValue
31

@<SCITEGIC>MOL_PROPERTY
Conf_Id
SciTegic.value.IntegerValue
1036

@<SCITEGIC>MOL_PROPERTY
Probability
SciTegic.value.DoubleValue
0.54

@<SCITEGIC>MOL_PROPERTY
Sum Probability
SciTegic.value.DoubleValue
89.66

@<SCITEGIC>MOL_PROPERTY
Delta G
SciTegic.value.DoubleValue
2.245

@<SCITEGIC>MOL_PROPERTY
G
SciTegic.value.DoubleValue
-5.717

@<SCITEGIC>MOL_PROPERTY
E
SciTegic.value.DoubleValue
-30.531

@<SCITEGIC>MOL_PROPERTY
-TS
SciTegic.value.DoubleValue
24.815

@<SCITEGIC>MOL_PROPERTY
U+W
SciTegic.value.DoubleValue
-51.099

@<SCITEGIC>MOL_PROPERTY
U
SciTegic.value.DoubleValue
8.902

@<SCITEGIC>MOL_PROPERTY
W
SciTegic.value.DoubleValue
-60.001

@<SCITEGIC>MOL_PROPERTY
W(PB)
SciTegic.value.DoubleValue
-62.478

@<SCITEGIC>MOL_PROPERTY
W(SA)
SciTegic.value.DoubleValue
2.477

@<SCITEGIC>MOL_PROPERTY
Valence
SciTegic.value.DoubleValue
8.306

@<SCITEGIC>MOL_PROPERTY
Coulomb
SciTegic.value.DoubleValue
-0.225

@<SCITEGIC>MOL_PROPERTY
VdW
SciTegic.value.DoubleValue
0.821

@<SCITEGIC>MOL_PROPERTY
VdW6
SciTegic.value.DoubleValue
-9.236

@<SCITEGIC>MOL_PROPERTY
VdW12
SciTegic.value.DoubleValue
10.057

@<SCITEGIC>MOL_PROPERTY
Bond
SciTegic.value.DoubleValue
0.173

@<SCITEGIC>MOL_PROPERTY
Angle
SciTegic.value.DoubleValue
2.663

@<SCITEGIC>MOL_PROPERTY
Pdih
SciTegic.value.DoubleValue
5.469

@<SCITEGIC>MOL_PROPERTY
Idih
SciTegic.value.DoubleValue
0.001

@<SCITEGIC>MOL_PROPERTY
Tether
SciTegic.value.DoubleValue
0.000

@<TRIPOS>MOLECULE
guest-8_vm2.mol2 : vm2 ligand conformer 32
          25          24           1
SMALL
USER_CHARGES
 
@<TRIPOS>ATOM
       1    C1      20.115550   19.290251   27.403051 C.2        1 MOL1         0.6168
       2    O1      21.213847   19.655914   27.773294 O.co2      1 MOL1        -0.6703
       3    O2      19.074467   19.750682   27.828781 O.co2      1 MOL1        -0.6703
       4    C2      20.036818   18.179737   26.359169 C.3        1 MOL1        -0.1963
       5    H1      19.286293   17.459063   26.704585 H          1 MOL1         0.0750
       6    H2      20.997553   17.651248   26.336427 H          1 MOL1         0.0750
       7    C3      19.663746   18.674033   24.937183 C.3        1 MOL1        -0.1860
       8    H3      19.481146   17.798106   24.301900 H          1 MOL1         0.0752
       9    H4      18.720273   19.235432   24.983043 H          1 MOL1         0.0752
      10    C4      20.768557   19.555044   24.305816 C.3        1 MOL1        -0.1858
      11    H5      21.699591   18.978119   24.221301 H          1 MOL1         0.0752
      12    H6      20.986536   20.396540   24.977655 H          1 MOL1         0.0752
      13    C5      20.384998   20.126501   22.920048 C.3        1 MOL1        -0.1858
      14    H7      19.454253   20.703859   23.005331 H          1 MOL1         0.0752
      15    H8      21.163591   20.836846   22.610084 H          1 MOL1         0.0752
      16    C6      20.229510   19.044340   21.826402 C.3        1 MOL1        -0.1858
      17    H9      19.401832   18.369843   22.080924 H          1 MOL1         0.0752
      18    H10     21.140970   18.432659   21.782820 H          1 MOL1         0.0752
      19    C7      19.962053   19.668789   20.440648 C.3        1 MOL1        -0.1834
      20    H11     19.051850   20.283092   20.481068 H          1 MOL1         0.0752
      21    H12     20.788792   20.340321   20.170504 H          1 MOL1         0.0752
      22    C8      19.803453   18.588709   19.351606 C.3        1 MOL1        -0.2849
      23    H13     18.962055   17.921350   19.579785 H          1 MOL1         0.0764
      24    H14     19.614417   19.050148   18.373648 H          1 MOL1         0.0764
      25    H15     20.712304   17.978417   19.268461 H          1 MOL1         0.0764
@<TRIPOS>BOND
    1     1     2    1
    2     1     3    2
    3     1     4    1
    4     4     5    1
    5     4     6    1
    6     4     7    1
    7     7     8    1
    8     7     9    1
    9     7    10    1
   10    10    11    1
   11    10    12    1
   12    10    13    1
   13    13    14    1
   14    13    15    1
   15    13    16    1
   16    16    17    1
   17    16    18    1
   18    16    19    1
   19    19    20    1
   20    19    21    1
   21    19    22    1
   22    22    23    1
   23    22    24    1
   24    22    25    1
@<TRIPOS>SUBSTRUCTURE
       1 MOL1            1 RESIDUE      1      MOL     
@<SCITEGIC>MOL_PROPERTY
VM2 Rank
SciTegic.value.IntegerValue
32

@<SCITEGIC>MOL_PROPERTY
Conf_Id
SciTegic.value.IntegerValue
986

@<SCITEGIC>MOL_PROPERTY
Probability
SciTegic.value.DoubleValue
0.53

@<SCITEGIC>MOL_PROPERTY
Sum Probability
SciTegic.value.DoubleValue
90.19

@<SCITEGIC>MOL_PROPERTY
Delta G
SciTegic.value.DoubleValue
2.259

@<SCITEGIC>MOL_PROPERTY
G
SciTegic.value.DoubleValue
-5.704

@<SCITEGIC>MOL_PROPERTY
E
SciTegic.value.DoubleValue
-30.525

@<SCITEGIC>MOL_PROPERTY
-TS
SciTegic.value.DoubleValue
24.821

@<SCITEGIC>MOL_PROPERTY
U+W
SciTegic.value.DoubleValue
-51.093

@<SCITEGIC>MOL_PROPERTY
U
SciTegic.value.DoubleValue
8.377

@<SCITEGIC>MOL_PROPERTY
W
SciTegic.value.DoubleValue
-59.470

@<SCITEGIC>MOL_PROPERTY
W(PB)
SciTegic.value.DoubleValue
-61.944

@<SCITEGIC>MOL_PROPERTY
W(SA)
SciTegic.value.DoubleValue
2.474

@<SCITEGIC>MOL_PROPERTY
Valence
SciTegic.value.DoubleValue
8.357

@<SCITEGIC>MOL_PROPERTY
Coulomb
SciTegic.value.DoubleValue
-0.892

@<SCITEGIC>MOL_PROPERTY
VdW
SciTegic.value.DoubleValue
0.912

@<SCITEGIC>MOL_PROPERTY
VdW6
SciTegic.value.DoubleValue
-9.161

@<SCITEGIC>MOL_PROPERTY
VdW12
SciTegic.value.DoubleValue
10.073

@<SCITEGIC>MOL_PROPERTY
Bond
SciTegic.value.DoubleValue
0.177

@<SCITEGIC>MOL_PROPERTY
Angle
SciTegic.value.DoubleValue
2.702

@<SCITEGIC>MOL_PROPERTY
Pdih
SciTegic.value.DoubleValue
5.478

@<SCITEGIC>MOL_PROPERTY
Idih
SciTegic.value.DoubleValue
0.000

@<SCITEGIC>MOL_PROPERTY
Tether
SciTegic.value.DoubleValue
0.000

@<TRIPOS>MOLECULE
guest-8_vm2.mol2 : vm2 ligand conformer 33
          25          24           1
SMALL
USER_CHARGES
 
@<TRIPOS>ATOM
       1    C1      20.107761   18.977064   27.272317 C.2        1 MOL1         0.6168
       2    O1      21.143586   18.353351   27.394918 O.co2      1 MOL1        -0.6703
       3    O2      19.024912   18.560856   27.634667 O.co2      1 MOL1        -0.6703
       4    C2      20.170281   20.366881   26.645032 C.3        1 MOL1        -0.1963
       5    H1      21.204923   20.727259   26.694861 H          1 MOL1         0.0750
       6    H2      19.570217   21.036832   27.271981 H          1 MOL1         0.0750
       7    C3      19.653183   20.422897   25.184069 C.3        1 MOL1        -0.1860
       8    H3      18.626538   20.032728   25.146175 H          1 MOL1         0.0752
       9    H4      19.604563   21.472250   24.863091 H          1 MOL1         0.0752
      10    C4      20.550097   19.631972   24.205375 C.3        1 MOL1        -0.1858
      11    H5      20.589422   18.576784   24.509409 H          1 MOL1         0.0752
      12    H6      21.577819   20.016730   24.257382 H          1 MOL1         0.0752
      13    C5      20.034927   19.727686   22.752945 C.3        1 MOL1        -0.1858
      14    H7      19.006233   19.346754   22.710939 H          1 MOL1         0.0752
      15    H8      20.000484   20.781357   22.444226 H          1 MOL1         0.0752
      16    C6      20.930946   18.932337   21.775512 C.3        1 MOL1        -0.1858
      17    H9      20.926773   17.869001   22.051615 H          1 MOL1         0.0752
      18    H10     21.968705   19.276966   21.881263 H          1 MOL1         0.0752
      19    C7      20.511674   19.083926   20.294693 C.3        1 MOL1        -0.1834
      20    H11     20.521037   20.146008   20.013256 H          1 MOL1         0.0752
      21    H12     21.262622   18.589176   19.663396 H          1 MOL1         0.0752
      22    C8      19.125634   18.477029   19.986473 C.3        1 MOL1        -0.2849
      23    H13     18.913898   18.530399   18.910729 H          1 MOL1         0.0764
      24    H14     19.082827   17.422166   20.287397 H          1 MOL1         0.0764
      25    H15     18.326420   19.017210   20.509127 H          1 MOL1         0.0764
@<TRIPOS>BOND
    1     1     2    1
    2     1     3    2
    3     1     4    1
    4     4     5    1
    5     4     6    1
    6     4     7    1
    7     7     8    1
    8     7     9    1
    9     7    10    1
   10    10    11    1
   11    10    12    1
   12    10    13    1
   13    13    14    1
   14    13    15    1
   15    13    16    1
   16    16    17    1
   17    16    18    1
   18    16    19    1
   19    19    20    1
   20    19    21    1
   21    19    22    1
   22    22    23    1
   23    22    24    1
   24    22    25    1
@<TRIPOS>SUBSTRUCTURE
       1 MOL1            1 RESIDUE      1      MOL     
@<SCITEGIC>MOL_PROPERTY
VM2 Rank
SciTegic.value.IntegerValue
33

@<SCITEGIC>MOL_PROPERTY
Conf_Id
SciTegic.value.IntegerValue
493

@<SCITEGIC>MOL_PROPERTY
Probability
SciTegic.value.DoubleValue
0.51

@<SCITEGIC>MOL_PROPERTY
Sum Probability
SciTegic.value.DoubleValue
90.70

@<SCITEGIC>MOL_PROPERTY
Delta G
SciTegic.value.DoubleValue
2.283

@<SCITEGIC>MOL_PROPERTY
G
SciTegic.value.DoubleValue
-5.679

@<SCITEGIC>MOL_PROPERTY
E
SciTegic.value.DoubleValue
-30.501

@<SCITEGIC>MOL_PROPERTY
-TS
SciTegic.value.DoubleValue
24.822

@<SCITEGIC>MOL_PROPERTY
U+W
SciTegic.value.DoubleValue
-51.069

@<SCITEGIC>MOL_PROPERTY
U
SciTegic.value.DoubleValue
8.783

@<SCITEGIC>MOL_PROPERTY
W
SciTegic.value.DoubleValue
-59.850

@<SCITEGIC>MOL_PROPERTY
W(PB)
SciTegic.value.DoubleValue
-62.310

@<SCITEGIC>MOL_PROPERTY
W(SA)
SciTegic.value.DoubleValue
2.460

@<SCITEGIC>MOL_PROPERTY
Valence
SciTegic.value.DoubleValue
8.287

@<SCITEGIC>MOL_PROPERTY
Coulomb
SciTegic.value.DoubleValue
-0.381

@<SCITEGIC>MOL_PROPERTY
VdW
SciTegic.value.DoubleValue
0.877

@<SCITEGIC>MOL_PROPERTY
VdW6
SciTegic.value.DoubleValue
-9.131

@<SCITEGIC>MOL_PROPERTY
VdW12
SciTegic.value.DoubleValue
10.007

@<SCITEGIC>MOL_PROPERTY
Bond
SciTegic.value.DoubleValue
0.167

@<SCITEGIC>MOL_PROPERTY
Angle
SciTegic.value.DoubleValue
2.660

@<SCITEGIC>MOL_PROPERTY
Pdih
SciTegic.value.DoubleValue
5.459

@<SCITEGIC>MOL_PROPERTY
Idih
SciTegic.value.DoubleValue
0.000

@<SCITEGIC>MOL_PROPERTY
Tether
SciTegic.value.DoubleValue
0.000

@<TRIPOS>MOLECULE
guest-8_vm2.mol2 : vm2 ligand conformer 34
          25          24           1
SMALL
USER_CHARGES
 
@<TRIPOS>ATOM
       1    C1      19.959380   18.946116   27.154832 C.2        1 MOL1         0.6168
       2    O1      21.015045   18.513075   27.573292 O.co2      1 MOL1        -0.6703
       3    O2      18.910998   18.334001   27.212151 O.co2      1 MOL1        -0.6703
       4    C2      19.943349   20.343098   26.540736 C.3        1 MOL1        -0.1963
       5    H1      20.834848   20.884586   26.879550 H          1 MOL1         0.0750
       6    H2      19.075491   20.872401   26.951402 H          1 MOL1         0.0750
       7    C3      19.868381   20.348565   24.991785 C.3        1 MOL1        -0.1860
       8    H3      18.979875   19.785403   24.677021 H          1 MOL1         0.0752
       9    H4      19.729694   21.381381   24.644908 H          1 MOL1         0.0752
      10    C4      21.138143   19.755306   24.335657 C.3        1 MOL1        -0.1858
      11    H5      21.246913   18.699658   24.620431 H          1 MOL1         0.0752
      12    H6      22.020991   20.274882   24.732478 H          1 MOL1         0.0752
      13    C5      21.148674   19.876552   22.793284 C.3        1 MOL1        -0.1858
      14    H7      21.049057   20.932269   22.506253 H          1 MOL1         0.0752
      15    H8      22.129531   19.545809   22.425334 H          1 MOL1         0.0752
      16    C6      20.045563   19.041820   22.102343 C.3        1 MOL1        -0.1858
      17    H9      19.055193   19.409074   22.401041 H          1 MOL1         0.0752
      18    H10     20.113951   17.996820   22.434293 H          1 MOL1         0.0752
      19    C7      20.163216   19.102597   20.564743 C.3        1 MOL1        -0.1834
      20    H11     20.097077   20.146985   20.229575 H          1 MOL1         0.0752
      21    H12     21.148424   18.728941   20.253022 H          1 MOL1         0.0752
      22    C8      19.060251   18.272870   19.877177 C.3        1 MOL1        -0.2849
      23    H13     18.063148   18.645568   20.145997 H          1 MOL1         0.0764
      24    H14     19.159247   18.326996   18.785240 H          1 MOL1         0.0764
      25    H15     19.122286   17.216910   20.171256 H          1 MOL1         0.0764
@<TRIPOS>BOND
    1     1     2    1
    2     1     3    2
    3     1     4    1
    4     4     5    1
    5     4     6    1
    6     4     7    1
    7     7     8    1
    8     7     9    1
    9     7    10    1
   10    10    11    1
   11    10    12    1
   12    10    13    1
   13    13    14    1
   14    13    15    1
   15    13    16    1
   16    16    17    1
   17    16    18    1
   18    16    19    1
   19    19    20    1
   20    19    21    1
   21    19    22    1
   22    22    23    1
   23    22    24    1
   24    22    25    1
@<TRIPOS>SUBSTRUCTURE
       1 MOL1            1 RESIDUE      1      MOL     
@<SCITEGIC>MOL_PROPERTY
VM2 Rank
SciTegic.value.IntegerValue
34

@<SCITEGIC>MOL_PROPERTY
Conf_Id
SciTegic.value.IntegerValue
459

@<SCITEGIC>MOL_PROPERTY
Probability
SciTegic.value.DoubleValue
0.50

@<SCITEGIC>MOL_PROPERTY
Sum Probability
SciTegic.value.DoubleValue
91.21

@<SCITEGIC>MOL_PROPERTY
Delta G
SciTegic.value.DoubleValue
2.295

@<SCITEGIC>MOL_PROPERTY
G
SciTegic.value.DoubleValue
-5.668

@<SCITEGIC>MOL_PROPERTY
E
SciTegic.value.DoubleValue
-30.482

@<SCITEGIC>MOL_PROPERTY
-TS
SciTegic.value.DoubleValue
24.815

@<SCITEGIC>MOL_PROPERTY
U+W
SciTegic.value.DoubleValue
-51.050

@<SCITEGIC>MOL_PROPERTY
U
SciTegic.value.DoubleValue
8.903

@<SCITEGIC>MOL_PROPERTY
W
SciTegic.value.DoubleValue
-59.953

@<SCITEGIC>MOL_PROPERTY
W(PB)
SciTegic.value.DoubleValue
-62.431

@<SCITEGIC>MOL_PROPERTY
W(SA)
SciTegic.value.DoubleValue
2.478

@<SCITEGIC>MOL_PROPERTY
Valence
SciTegic.value.DoubleValue
8.305

@<SCITEGIC>MOL_PROPERTY
Coulomb
SciTegic.value.DoubleValue
-0.224

@<SCITEGIC>MOL_PROPERTY
VdW
SciTegic.value.DoubleValue
0.821

@<SCITEGIC>MOL_PROPERTY
VdW6
SciTegic.value.DoubleValue
-9.236

@<SCITEGIC>MOL_PROPERTY
VdW12
SciTegic.value.DoubleValue
10.057

@<SCITEGIC>MOL_PROPERTY
Bond
SciTegic.value.DoubleValue
0.173

@<SCITEGIC>MOL_PROPERTY
Angle
SciTegic.value.DoubleValue
2.663

@<SCITEGIC>MOL_PROPERTY
Pdih
SciTegic.value.DoubleValue
5.469

@<SCITEGIC>MOL_PROPERTY
Idih
SciTegic.value.DoubleValue
0.001

@<SCITEGIC>MOL_PROPERTY
Tether
SciTegic.value.DoubleValue
0.000

@<TRIPOS>MOLECULE
guest-8_vm2.mol2 : vm2 ligand conformer 35
          25          24           1
SMALL
USER_CHARGES
 
@<TRIPOS>ATOM
       1    C1      19.821646   19.570672   27.137785 C.2        1 MOL1         0.6168
       2    O1      20.687097   20.125172   27.786356 O.co2      1 MOL1        -0.6703
       3    O2      18.718368   20.042745   26.945743 O.co2      1 MOL1        -0.6703
       4    C2      20.133323   18.197612   26.549084 C.3        1 MOL1        -0.1963
       5    H1      19.187721   17.699050   26.303897 H          1 MOL1         0.0750
       6    H2      20.610357   17.603506   27.337393 H          1 MOL1         0.0750
       7    C3      21.055223   18.240495   25.302766 C.3        1 MOL1        -0.1860
       8    H3      21.986601   18.765230   25.557344 H          1 MOL1         0.0752
       9    H4      21.334938   17.213709   25.030721 H          1 MOL1         0.0752
      10    C4      20.383671   18.923311   24.089975 C.3        1 MOL1        -0.1858
      11    H5      20.120849   19.958695   24.347033 H          1 MOL1         0.0752
      12    H6      19.444933   18.403135   23.859698 H          1 MOL1         0.0752
      13    C5      21.307668   18.920163   22.850205 C.3        1 MOL1        -0.1858
      14    H7      22.269422   19.376595   23.121470 H          1 MOL1         0.0752
      15    H8      21.527355   17.885330   22.554043 H          1 MOL1         0.0752
      16    C6      20.723119   19.691237   21.642764 C.3        1 MOL1        -0.1858
      17    H9      21.491130   19.744361   20.859046 H          1 MOL1         0.0752
      18    H10     20.507972   20.727495   21.937400 H          1 MOL1         0.0752
      19    C7      19.450054   19.042136   21.054131 C.3        1 MOL1        -0.1834
      20    H11     19.649683   17.989701   20.809758 H          1 MOL1         0.0752
      21    H12     18.642469   19.051115   21.797874 H          1 MOL1         0.0752
      22    C8      18.972832   19.780458   19.787191 C.3        1 MOL1        -0.2849
      23    H13     18.066892   19.309965   19.383509 H          1 MOL1         0.0764
      24    H14     18.739553   20.830068   20.009172 H          1 MOL1         0.0764
      25    H15     19.743158   19.758220   19.005245 H          1 MOL1         0.0764
@<TRIPOS>BOND
    1     1     2    1
    2     1     3    2
    3     1     4    1
    4     4     5    1
    5     4     6    1
    6     4     7    1
    7     7     8    1
    8     7     9    1
    9     7    10    1
   10    10    11    1
   11    10    12    1
   12    10    13    1
   13    13    14    1
   14    13    15    1
   15    13    16    1
   16    16    17    1
   17    16    18    1
   18    16    19    1
   19    19    20    1
   20    19    21    1
   21    19    22    1
   22    22    23    1
   23    22    24    1
   24    22    25    1
@<TRIPOS>SUBSTRUCTURE
       1 MOL1            1 RESIDUE      1      MOL     
@<SCITEGIC>MOL_PROPERTY
VM2 Rank
SciTegic.value.IntegerValue
35

@<SCITEGIC>MOL_PROPERTY
Conf_Id
SciTegic.value.IntegerValue
286

@<SCITEGIC>MOL_PROPERTY
Probability
SciTegic.value.DoubleValue
0.49

@<SCITEGIC>MOL_PROPERTY
Sum Probability
SciTegic.value.DoubleValue
91.70

@<SCITEGIC>MOL_PROPERTY
Delta G
SciTegic.value.DoubleValue
2.306

@<SCITEGIC>MOL_PROPERTY
G
SciTegic.value.DoubleValue
-5.656

@<SCITEGIC>MOL_PROPERTY
E
SciTegic.value.DoubleValue
-30.465

@<SCITEGIC>MOL_PROPERTY
-TS
SciTegic.value.DoubleValue
24.809

@<SCITEGIC>MOL_PROPERTY
U+W
SciTegic.value.DoubleValue
-51.032

@<SCITEGIC>MOL_PROPERTY
U
SciTegic.value.DoubleValue
8.998

@<SCITEGIC>MOL_PROPERTY
W
SciTegic.value.DoubleValue
-60.030

@<SCITEGIC>MOL_PROPERTY
W(PB)
SciTegic.value.DoubleValue
-62.528

@<SCITEGIC>MOL_PROPERTY
W(SA)
SciTegic.value.DoubleValue
2.498

@<SCITEGIC>MOL_PROPERTY
Valence
SciTegic.value.DoubleValue
8.322

@<SCITEGIC>MOL_PROPERTY
Coulomb
SciTegic.value.DoubleValue
-0.176

@<SCITEGIC>MOL_PROPERTY
VdW
SciTegic.value.DoubleValue
0.852

@<SCITEGIC>MOL_PROPERTY
VdW6
SciTegic.value.DoubleValue
-9.197

@<SCITEGIC>MOL_PROPERTY
VdW12
SciTegic.value.DoubleValue
10.049

@<SCITEGIC>MOL_PROPERTY
Bond
SciTegic.value.DoubleValue
0.171

@<SCITEGIC>MOL_PROPERTY
Angle
SciTegic.value.DoubleValue
2.683

@<SCITEGIC>MOL_PROPERTY
Pdih
SciTegic.value.DoubleValue
5.468

@<SCITEGIC>MOL_PROPERTY
Idih
SciTegic.value.DoubleValue
0.000

@<SCITEGIC>MOL_PROPERTY
Tether
SciTegic.value.DoubleValue
0.000

@<TRIPOS>MOLECULE
guest-8_vm2.mol2 : vm2 ligand conformer 36
          25          24           1
SMALL
USER_CHARGES
 
@<TRIPOS>ATOM
       1    C1      20.066339   19.460771   27.330410 C.2        1 MOL1         0.6168
       2    O1      20.965197   20.151405   27.768780 O.co2      1 MOL1        -0.6703
       3    O2      18.888051   19.730447   27.456482 O.co2      1 MOL1        -0.6703
       4    C2      20.439736   18.175536   26.597114 C.3        1 MOL1        -0.1963
       5    H1      19.562817   17.517206   26.575842 H          1 MOL1         0.0750
       6    H2      21.204249   17.666707   27.195939 H          1 MOL1         0.0750
       7    C3      20.974126   18.402698   25.159136 C.3        1 MOL1        -0.1860
       8    H3      21.834121   19.085957   25.194075 H          1 MOL1         0.0752
       9    H4      21.344792   17.448117   24.761743 H          1 MOL1         0.0752
      10    C4      19.896011   18.966769   24.206579 C.3        1 MOL1        -0.1858
      11    H5      19.532333   19.930558   24.588944 H          1 MOL1         0.0752
      12    H6      19.033261   18.286923   24.184902 H          1 MOL1         0.0752
      13    C5      20.440455   19.154970   22.773994 C.3        1 MOL1        -0.1858
      14    H7      21.300932   19.837519   22.795767 H          1 MOL1         0.0752
      15    H8      20.805005   18.190273   22.397847 H          1 MOL1         0.0752
      16    C6      19.359758   19.716695   21.821430 C.3        1 MOL1        -0.1858
      17    H9      18.955406   20.644945   22.247799 H          1 MOL1         0.0752
      18    H10     18.519558   19.011748   21.758166 H          1 MOL1         0.0752
      19    C7      19.889435   20.019067   20.400304 C.3        1 MOL1        -0.1834
      20    H11     19.096752   20.520487   19.828054 H          1 MOL1         0.0752
      21    H12     20.725846   20.729169   20.459375 H          1 MOL1         0.0752
      22    C8      20.333891   18.755642   19.631772 C.3        1 MOL1        -0.2849
      23    H13     21.202908   18.282968   20.106209 H          1 MOL1         0.0764
      24    H14     19.522313   18.017844   19.585782 H          1 MOL1         0.0764
      25    H15     20.616222   19.012022   18.602469 H          1 MOL1         0.0764
@<TRIPOS>BOND
    1     1     2    1
    2     1     3    2
    3     1     4    1
    4     4     5    1
    5     4     6    1
    6     4     7    1
    7     7     8    1
    8     7     9    1
    9     7    10    1
   10    10    11    1
   11    10    12    1
   12    10    13    1
   13    13    14    1
   14    13    15    1
   15    13    16    1
   16    16    17    1
   17    16    18    1
   18    16    19    1
   19    19    20    1
   20    19    21    1
   21    19    22    1
   22    22    23    1
   23    22    24    1
   24    22    25    1
@<TRIPOS>SUBSTRUCTURE
       1 MOL1            1 RESIDUE      1      MOL     
@<SCITEGIC>MOL_PROPERTY
VM2 Rank
SciTegic.value.IntegerValue
36

@<SCITEGIC>MOL_PROPERTY
Conf_Id
SciTegic.value.IntegerValue
1063

@<SCITEGIC>MOL_PROPERTY
Probability
SciTegic.value.DoubleValue
0.49

@<SCITEGIC>MOL_PROPERTY
Sum Probability
SciTegic.value.DoubleValue
92.19

@<SCITEGIC>MOL_PROPERTY
Delta G
SciTegic.value.DoubleValue
2.310

@<SCITEGIC>MOL_PROPERTY
G
SciTegic.value.DoubleValue
-5.653

@<SCITEGIC>MOL_PROPERTY
E
SciTegic.value.DoubleValue
-30.473

@<SCITEGIC>MOL_PROPERTY
-TS
SciTegic.value.DoubleValue
24.821

@<SCITEGIC>MOL_PROPERTY
U+W
SciTegic.value.DoubleValue
-51.041

@<SCITEGIC>MOL_PROPERTY
U
SciTegic.value.DoubleValue
8.634

@<SCITEGIC>MOL_PROPERTY
W
SciTegic.value.DoubleValue
-59.675

@<SCITEGIC>MOL_PROPERTY
W(PB)
SciTegic.value.DoubleValue
-62.166

@<SCITEGIC>MOL_PROPERTY
W(SA)
SciTegic.value.DoubleValue
2.491

@<SCITEGIC>MOL_PROPERTY
Valence
SciTegic.value.DoubleValue
8.287

@<SCITEGIC>MOL_PROPERTY
Coulomb
SciTegic.value.DoubleValue
-0.534

@<SCITEGIC>MOL_PROPERTY
VdW
SciTegic.value.DoubleValue
0.881

@<SCITEGIC>MOL_PROPERTY
VdW6
SciTegic.value.DoubleValue
-9.127

@<SCITEGIC>MOL_PROPERTY
VdW12
SciTegic.value.DoubleValue
10.009

@<SCITEGIC>MOL_PROPERTY
Bond
SciTegic.value.DoubleValue
0.168

@<SCITEGIC>MOL_PROPERTY
Angle
SciTegic.value.DoubleValue
2.660

@<SCITEGIC>MOL_PROPERTY
Pdih
SciTegic.value.DoubleValue
5.459

@<SCITEGIC>MOL_PROPERTY
Idih
SciTegic.value.DoubleValue
0.000

@<SCITEGIC>MOL_PROPERTY
Tether
SciTegic.value.DoubleValue
0.000

@<TRIPOS>MOLECULE
guest-8_vm2.mol2 : vm2 ligand conformer 37
          25          24           1
SMALL
USER_CHARGES
 
@<TRIPOS>ATOM
       1    C1      20.201614   19.295872   27.402004 C.2        1 MOL1         0.6168
       2    O1      21.185400   19.885475   27.804038 O.co2      1 MOL1        -0.6703
       3    O2      19.074679   19.519650   27.798217 O.co2      1 MOL1        -0.6703
       4    C2      20.396476   18.202693   26.355049 C.3        1 MOL1        -0.1963
       5    H1      19.510404   17.556394   26.353956 H          1 MOL1         0.0750
       6    H2      21.240318   17.583769   26.681905 H          1 MOL1         0.0750
       7    C3      20.670537   18.738119   24.925449 C.3        1 MOL1        -0.1860
       8    H3      21.535675   19.415125   24.950153 H          1 MOL1         0.0752
       9    H4      20.948381   17.891518   24.284941 H          1 MOL1         0.0752
      10    C4      19.448226   19.470265   24.321028 C.3        1 MOL1        -0.1858
      11    H5      19.140249   20.278025   24.999017 H          1 MOL1         0.0752
      12    H6      18.596637   18.779246   24.256999 H          1 MOL1         0.0752
      13    C5      19.723881   20.084066   22.927726 C.3        1 MOL1        -0.1858
      14    H7      18.854064   20.688712   22.636704 H          1 MOL1         0.0752
      15    H8      20.574968   20.775689   22.992609 H          1 MOL1         0.0752
      16    C6      19.991320   19.029090   21.829180 C.3        1 MOL1        -0.1858
      17    H9      19.164734   18.305899   21.805497 H          1 MOL1         0.0752
      18    H10     20.903994   18.466242   22.063717 H          1 MOL1         0.0752
      19    C7      20.145083   19.680629   20.438629 C.3        1 MOL1        -0.1834
      20    H11     19.233281   20.240460   20.188354 H          1 MOL1         0.0752
      21    H12     20.969880   20.406408   20.459240 H          1 MOL1         0.0752
      22    C8      20.415785   18.628142   19.344678 C.3        1 MOL1        -0.2849
      23    H13     21.340662   18.074312   19.552668 H          1 MOL1         0.0764
      24    H14     19.590877   17.906410   19.281359 H          1 MOL1         0.0764
      25    H15     20.521887   19.108550   18.363346 H          1 MOL1         0.0764
@<TRIPOS>BOND
    1     1     2    1
    2     1     3    2
    3     1     4    1
    4     4     5    1
    5     4     6    1
    6     4     7    1
    7     7     8    1
    8     7     9    1
    9     7    10    1
   10    10    11    1
   11    10    12    1
   12    10    13    1
   13    13    14    1
   14    13    15    1
   15    13    16    1
   16    16    17    1
   17    16    18    1
   18    16    19    1
   19    19    20    1
   20    19    21    1
   21    19    22    1
   22    22    23    1
   23    22    24    1
   24    22    25    1
@<TRIPOS>SUBSTRUCTURE
       1 MOL1            1 RESIDUE      1      MOL     
@<SCITEGIC>MOL_PROPERTY
VM2 Rank
SciTegic.value.IntegerValue
37

@<SCITEGIC>MOL_PROPERTY
Conf_Id
SciTegic.value.IntegerValue
780

@<SCITEGIC>MOL_PROPERTY
Probability
SciTegic.value.DoubleValue
0.48

@<SCITEGIC>MOL_PROPERTY
Sum Probability
SciTegic.value.DoubleValue
92.67

@<SCITEGIC>MOL_PROPERTY
Delta G
SciTegic.value.DoubleValue
2.316

@<SCITEGIC>MOL_PROPERTY
G
SciTegic.value.DoubleValue
-5.646

@<SCITEGIC>MOL_PROPERTY
E
SciTegic.value.DoubleValue
-30.467

@<SCITEGIC>MOL_PROPERTY
-TS
SciTegic.value.DoubleValue
24.821

@<SCITEGIC>MOL_PROPERTY
U+W
SciTegic.value.DoubleValue
-51.035

@<SCITEGIC>MOL_PROPERTY
U
SciTegic.value.DoubleValue
8.377

@<SCITEGIC>MOL_PROPERTY
W
SciTegic.value.DoubleValue
-59.412

@<SCITEGIC>MOL_PROPERTY
W(PB)
SciTegic.value.DoubleValue
-61.874

@<SCITEGIC>MOL_PROPERTY
W(SA)
SciTegic.value.DoubleValue
2.463

@<SCITEGIC>MOL_PROPERTY
Valence
SciTegic.value.DoubleValue
8.357

@<SCITEGIC>MOL_PROPERTY
Coulomb
SciTegic.value.DoubleValue
-0.892

@<SCITEGIC>MOL_PROPERTY
VdW
SciTegic.value.DoubleValue
0.912

@<SCITEGIC>MOL_PROPERTY
VdW6
SciTegic.value.DoubleValue
-9.161

@<SCITEGIC>MOL_PROPERTY
VdW12
SciTegic.value.DoubleValue
10.073

@<SCITEGIC>MOL_PROPERTY
Bond
SciTegic.value.DoubleValue
0.177

@<SCITEGIC>MOL_PROPERTY
Angle
SciTegic.value.DoubleValue
2.702

@<SCITEGIC>MOL_PROPERTY
Pdih
SciTegic.value.DoubleValue
5.478

@<SCITEGIC>MOL_PROPERTY
Idih
SciTegic.value.DoubleValue
0.000

@<SCITEGIC>MOL_PROPERTY
Tether
SciTegic.value.DoubleValue
0.000

@<TRIPOS>MOLECULE
guest-8_vm2.mol2 : vm2 ligand conformer 38
          25          24           1
SMALL
USER_CHARGES
 
@<TRIPOS>ATOM
       1    C1      19.866983   19.746833   27.004744 C.2        1 MOL1         0.6168
       2    O1      20.727182   20.478735   27.453619 O.co2      1 MOL1        -0.6703
       3    O2      18.718138   20.095465   26.816157 O.co2      1 MOL1        -0.6703
       4    C2      20.248248   18.305516   26.678569 C.3        1 MOL1        -0.1963
       5    H1      19.331993   17.705549   26.620669 H          1 MOL1         0.0750
       6    H2      20.827260   17.919899   27.525921 H          1 MOL1         0.0750
       7    C3      21.072947   18.151095   25.374300 C.3        1 MOL1        -0.1860
       8    H3      21.971941   18.780169   25.435409 H          1 MOL1         0.0752
       9    H4      21.419133   17.111854   25.292928 H          1 MOL1         0.0752
      10    C4      20.262039   18.519202   24.111347 C.3        1 MOL1        -0.1858
      11    H5      19.924561   19.560965   24.188907 H          1 MOL1         0.0752
      12    H6      19.360314   17.893963   24.059259 H          1 MOL1         0.0752
      13    C5      21.096519   18.332205   22.823125 C.3        1 MOL1        -0.1858
      14    H7      21.970700   18.997078   22.848633 H          1 MOL1         0.0752
      15    H8      21.487400   17.305881   22.796694 H          1 MOL1         0.0752
      16    C6      20.292678   18.583293   21.525034 C.3        1 MOL1        -0.1858
      17    H9      19.420818   17.915481   21.497238 H          1 MOL1         0.0752
      18    H10     20.921908   18.308207   20.667552 H          1 MOL1         0.0752
      19    C7      19.831560   20.049012   21.358740 C.3        1 MOL1        -0.1834
      20    H11     19.136563   20.320709   22.164159 H          1 MOL1         0.0752
      21    H12     20.696652   20.721328   21.441192 H          1 MOL1         0.0752
      22    C8      19.136705   20.272645   20.000365 C.3        1 MOL1        -0.2849
      23    H13     18.250861   19.631495   19.902525 H          1 MOL1         0.0764
      24    H14     18.812436   21.316503   19.899073 H          1 MOL1         0.0764
      25    H15     19.816962   20.047129   19.168664 H          1 MOL1         0.0764
@<TRIPOS>BOND
    1     1     2    1
    2     1     3    2
    3     1     4    1
    4     4     5    1
    5     4     6    1
    6     4     7    1
    7     7     8    1
    8     7     9    1
    9     7    10    1
   10    10    11    1
   11    10    12    1
   12    10    13    1
   13    13    14    1
   14    13    15    1
   15    13    16    1
   16    16    17    1
   17    16    18    1
   18    16    19    1
   19    19    20    1
   20    19    21    1
   21    19    22    1
   22    22    23    1
   23    22    24    1
   24    22    25    1
@<TRIPOS>SUBSTRUCTURE
       1 MOL1            1 RESIDUE      1      MOL     
@<SCITEGIC>MOL_PROPERTY
VM2 Rank
SciTegic.value.IntegerValue
38

@<SCITEGIC>MOL_PROPERTY
Conf_Id
SciTegic.value.IntegerValue
695

@<SCITEGIC>MOL_PROPERTY
Probability
SciTegic.value.DoubleValue
0.48

@<SCITEGIC>MOL_PROPERTY
Sum Probability
SciTegic.value.DoubleValue
93.15

@<SCITEGIC>MOL_PROPERTY
Delta G
SciTegic.value.DoubleValue
2.324

@<SCITEGIC>MOL_PROPERTY
G
SciTegic.value.DoubleValue
-5.639

@<SCITEGIC>MOL_PROPERTY
E
SciTegic.value.DoubleValue
-30.458

@<SCITEGIC>MOL_PROPERTY
-TS
SciTegic.value.DoubleValue
24.819

@<SCITEGIC>MOL_PROPERTY
U+W
SciTegic.value.DoubleValue
-51.026

@<SCITEGIC>MOL_PROPERTY
U
SciTegic.value.DoubleValue
9.231

@<SCITEGIC>MOL_PROPERTY
W
SciTegic.value.DoubleValue
-60.257

@<SCITEGIC>MOL_PROPERTY
W(PB)
SciTegic.value.DoubleValue
-62.739

@<SCITEGIC>MOL_PROPERTY
W(SA)
SciTegic.value.DoubleValue
2.483

@<SCITEGIC>MOL_PROPERTY
Valence
SciTegic.value.DoubleValue
8.319

@<SCITEGIC>MOL_PROPERTY
Coulomb
SciTegic.value.DoubleValue
0.075

@<SCITEGIC>MOL_PROPERTY
VdW
SciTegic.value.DoubleValue
0.838

@<SCITEGIC>MOL_PROPERTY
VdW6
SciTegic.value.DoubleValue
-9.234

@<SCITEGIC>MOL_PROPERTY
VdW12
SciTegic.value.DoubleValue
10.072

@<SCITEGIC>MOL_PROPERTY
Bond
SciTegic.value.DoubleValue
0.172

@<SCITEGIC>MOL_PROPERTY
Angle
SciTegic.value.DoubleValue
2.679

@<SCITEGIC>MOL_PROPERTY
Pdih
SciTegic.value.DoubleValue
5.467

@<SCITEGIC>MOL_PROPERTY
Idih
SciTegic.value.DoubleValue
0.000

@<SCITEGIC>MOL_PROPERTY
Tether
SciTegic.value.DoubleValue
0.000

@<TRIPOS>MOLECULE
guest-8_vm2.mol2 : vm2 ligand conformer 39
          25          24           1
SMALL
USER_CHARGES
 
@<TRIPOS>ATOM
       1    C1      20.380393   19.779786   26.998751 C.2        1 MOL1         0.6168
       2    O1      21.470874   20.271729   26.784754 O.co2      1 MOL1        -0.6703
       3    O2      19.444198   20.396803   27.467727 O.co2      1 MOL1        -0.6703
       4    C2      20.178771   18.301088   26.679454 C.3        1 MOL1        -0.1963
       5    H1      19.673309   17.846078   27.539357 H          1 MOL1         0.0750
       6    H2      21.162520   17.822845   26.599691 H          1 MOL1         0.0750
       7    C3      19.350793   18.040652   25.394263 C.3        1 MOL1        -0.1860
       8    H3      19.138399   16.965587   25.319354 H          1 MOL1         0.0752
       9    H4      18.380457   18.549840   25.476940 H          1 MOL1         0.0752
      10    C4      20.078798   18.507456   24.113549 C.3        1 MOL1        -0.1858
      11    H5      21.051592   18.002491   24.039866 H          1 MOL1         0.0752
      12    H6      20.282078   19.583920   24.184832 H          1 MOL1         0.0752
      13    C5      19.245692   18.213408   22.844567 C.3        1 MOL1        -0.1858
      14    H7      18.988698   17.145502   22.825638 H          1 MOL1         0.0752
      15    H8      18.294517   18.761129   22.891111 H          1 MOL1         0.0752
      16    C6      19.980825   18.563233   21.528722 C.3        1 MOL1        -0.1858
      17    H9      19.372466   18.208559   20.685524 H          1 MOL1         0.0752
      18    H10     20.930092   18.012410   21.480011 H          1 MOL1         0.0752
      19    C7      20.246681   20.075641   21.353910 C.3        1 MOL1        -0.1834
      20    H11     19.304781   20.631861   21.457036 H          1 MOL1         0.0752
      21    H12     20.919416   20.435316   22.143594 H          1 MOL1         0.0752
      22    C8      20.875974   20.384204   19.980302 C.3        1 MOL1        -0.2849
      23    H13     21.834140   19.861575   19.861384 H          1 MOL1         0.0764
      24    H14     20.211364   20.072125   19.164071 H          1 MOL1         0.0764
      25    H15     21.061544   21.460823   19.873016 H          1 MOL1         0.0764
@<TRIPOS>BOND
    1     1     2    1
    2     1     3    2
    3     1     4    1
    4     4     5    1
    5     4     6    1
    6     4     7    1
    7     7     8    1
    8     7     9    1
    9     7    10    1
   10    10    11    1
   11    10    12    1
   12    10    13    1
   13    13    14    1
   14    13    15    1
   15    13    16    1
   16    16    17    1
   17    16    18    1
   18    16    19    1
   19    19    20    1
   20    19    21    1
   21    19    22    1
   22    22    23    1
   23    22    24    1
   24    22    25    1
@<TRIPOS>SUBSTRUCTURE
       1 MOL1            1 RESIDUE      1      MOL     
@<SCITEGIC>MOL_PROPERTY
VM2 Rank
SciTegic.value.IntegerValue
39

@<SCITEGIC>MOL_PROPERTY
Conf_Id
SciTegic.value.IntegerValue
997

@<SCITEGIC>MOL_PROPERTY
Probability
SciTegic.value.DoubleValue
0.48

@<SCITEGIC>MOL_PROPERTY
Sum Probability
SciTegic.value.DoubleValue
93.62

@<SCITEGIC>MOL_PROPERTY
Delta G
SciTegic.value.DoubleValue
2.324

@<SCITEGIC>MOL_PROPERTY
G
SciTegic.value.DoubleValue
-5.638

@<SCITEGIC>MOL_PROPERTY
E
SciTegic.value.DoubleValue
-30.458

@<SCITEGIC>MOL_PROPERTY
-TS
SciTegic.value.DoubleValue
24.820

@<SCITEGIC>MOL_PROPERTY
U+W
SciTegic.value.DoubleValue
-51.026

@<SCITEGIC>MOL_PROPERTY
U
SciTegic.value.DoubleValue
9.231

@<SCITEGIC>MOL_PROPERTY
W
SciTegic.value.DoubleValue
-60.257

@<SCITEGIC>MOL_PROPERTY
W(PB)
SciTegic.value.DoubleValue
-62.751

@<SCITEGIC>MOL_PROPERTY
W(SA)
SciTegic.value.DoubleValue
2.494

@<SCITEGIC>MOL_PROPERTY
Valence
SciTegic.value.DoubleValue
8.318

@<SCITEGIC>MOL_PROPERTY
Coulomb
SciTegic.value.DoubleValue
0.075

@<SCITEGIC>MOL_PROPERTY
VdW
SciTegic.value.DoubleValue
0.838

@<SCITEGIC>MOL_PROPERTY
VdW6
SciTegic.value.DoubleValue
-9.234

@<SCITEGIC>MOL_PROPERTY
VdW12
SciTegic.value.DoubleValue
10.072

@<SCITEGIC>MOL_PROPERTY
Bond
SciTegic.value.DoubleValue
0.172

@<SCITEGIC>MOL_PROPERTY
Angle
SciTegic.value.DoubleValue
2.679

@<SCITEGIC>MOL_PROPERTY
Pdih
SciTegic.value.DoubleValue
5.467

@<SCITEGIC>MOL_PROPERTY
Idih
SciTegic.value.DoubleValue
0.000

@<SCITEGIC>MOL_PROPERTY
Tether
SciTegic.value.DoubleValue
0.000

@<TRIPOS>MOLECULE
guest-8_vm2.mol2 : vm2 ligand conformer 40
          25          24           1
SMALL
USER_CHARGES
 
@<TRIPOS>ATOM
       1    C1      20.451020   19.610884   27.130514 C.2        1 MOL1         0.6168
       2    O1      21.480560   20.219201   26.913824 O.co2      1 MOL1        -0.6703
       3    O2      19.537195   20.051744   27.799609 O.co2      1 MOL1        -0.6703
       4    C2      20.303103   18.208459   26.547135 C.3        1 MOL1        -0.1963
       5    H1      19.923801   17.559655   27.345345 H          1 MOL1         0.0750
       6    H2      21.298553   17.833890   26.279516 H          1 MOL1         0.0750
       7    C3      19.354797   18.131868   25.322433 C.3        1 MOL1        -0.1860
       8    H3      19.201792   17.077441   25.055393 H          1 MOL1         0.0752
       9    H4      18.370341   18.534231   25.599152 H          1 MOL1         0.0752
      10    C4      19.905941   18.892780   24.095511 C.3        1 MOL1        -0.1858
      11    H5      20.897667   18.495897   23.842918 H          1 MOL1         0.0752
      12    H6      20.040778   19.953560   24.347981 H          1 MOL1         0.0752
      13    C5      18.961556   18.770319   22.877338 C.3        1 MOL1        -0.1858
      14    H7      18.868517   17.715518   22.584776 H          1 MOL1         0.0752
      15    H8      17.956060   19.101109   23.171349 H          1 MOL1         0.0752
      16    C6      19.415334   19.607730   21.657913 C.3        1 MOL1        -0.1858
      17    H9      19.503741   20.663349   21.949088 H          1 MOL1         0.0752
      18    H10     18.628932   19.561676   20.892192 H          1 MOL1         0.0752
      19    C7      20.746666   19.124893   21.039091 C.3        1 MOL1        -0.1834
      20    H11     21.563490   19.237473   21.764041 H          1 MOL1         0.0752
      21    H12     20.676838   18.055282   20.797746 H          1 MOL1         0.0752
      22    C8      21.096829   19.916122   19.762633 C.3        1 MOL1        -0.2849
      23    H13     21.199877   20.987177   19.980802 H          1 MOL1         0.0764
      24    H14     22.045662   19.564021   19.337434 H          1 MOL1         0.0764
      25    H15     20.317742   19.795072   18.998624 H          1 MOL1         0.0764
@<TRIPOS>BOND
    1     1     2    1
    2     1     3    2
    3     1     4    1
    4     4     5    1
    5     4     6    1
    6     4     7    1
    7     7     8    1
    8     7     9    1
    9     7    10    1
   10    10    11    1
   11    10    12    1
   12    10    13    1
   13    13    14    1
   14    13    15    1
   15    13    16    1
   16    16    17    1
   17    16    18    1
   18    16    19    1
   19    19    20    1
   20    19    21    1
   21    19    22    1
   22    22    23    1
   23    22    24    1
   24    22    25    1
@<TRIPOS>SUBSTRUCTURE
       1 MOL1            1 RESIDUE      1      MOL     
@<SCITEGIC>MOL_PROPERTY
VM2 Rank
SciTegic.value.IntegerValue
40

@<SCITEGIC>MOL_PROPERTY
Conf_Id
SciTegic.value.IntegerValue
1046

@<SCITEGIC>MOL_PROPERTY
Probability
SciTegic.value.DoubleValue
0.44

@<SCITEGIC>MOL_PROPERTY
Sum Probability
SciTegic.value.DoubleValue
94.07

@<SCITEGIC>MOL_PROPERTY
Delta G
SciTegic.value.DoubleValue
2.368

@<SCITEGIC>MOL_PROPERTY
G
SciTegic.value.DoubleValue
-5.594

@<SCITEGIC>MOL_PROPERTY
E
SciTegic.value.DoubleValue
-30.404

@<SCITEGIC>MOL_PROPERTY
-TS
SciTegic.value.DoubleValue
24.810

@<SCITEGIC>MOL_PROPERTY
U+W
SciTegic.value.DoubleValue
-50.971

@<SCITEGIC>MOL_PROPERTY
U
SciTegic.value.DoubleValue
8.998

@<SCITEGIC>MOL_PROPERTY
W
SciTegic.value.DoubleValue
-59.969

@<SCITEGIC>MOL_PROPERTY
W(PB)
SciTegic.value.DoubleValue
-62.451

@<SCITEGIC>MOL_PROPERTY
W(SA)
SciTegic.value.DoubleValue
2.482

@<SCITEGIC>MOL_PROPERTY
Valence
SciTegic.value.DoubleValue
8.322

@<SCITEGIC>MOL_PROPERTY
Coulomb
SciTegic.value.DoubleValue
-0.176

@<SCITEGIC>MOL_PROPERTY
VdW
SciTegic.value.DoubleValue
0.852

@<SCITEGIC>MOL_PROPERTY
VdW6
SciTegic.value.DoubleValue
-9.197

@<SCITEGIC>MOL_PROPERTY
VdW12
SciTegic.value.DoubleValue
10.049

@<SCITEGIC>MOL_PROPERTY
Bond
SciTegic.value.DoubleValue
0.171

@<SCITEGIC>MOL_PROPERTY
Angle
SciTegic.value.DoubleValue
2.683

@<SCITEGIC>MOL_PROPERTY
Pdih
SciTegic.value.DoubleValue
5.468

@<SCITEGIC>MOL_PROPERTY
Idih
SciTegic.value.DoubleValue
0.000

@<SCITEGIC>MOL_PROPERTY
Tether
SciTegic.value.DoubleValue
0.000

@<TRIPOS>MOLECULE
guest-8_vm2.mol2 : vm2 ligand conformer 41
          25          24           1
SMALL
USER_CHARGES
 
@<TRIPOS>ATOM
       1    C1      20.372597   19.738164   26.918812 C.2        1 MOL1         0.6168
       2    O1      20.997458   20.661730   26.435665 O.co2      1 MOL1        -0.6703
       3    O2      19.576956   19.867459   27.828595 O.co2      1 MOL1        -0.6703
       4    C2      20.618328   18.334312   26.373100 C.3        1 MOL1        -0.1963
       5    H1      20.818732   17.682043   27.231029 H          1 MOL1         0.0750
       6    H2      21.534934   18.346413   25.772555 H          1 MOL1         0.0750
       7    C3      19.432631   17.755305   25.553652 C.3        1 MOL1        -0.1860
       8    H3      19.670738   16.725729   25.254241 H          1 MOL1         0.0752
       9    H4      18.551698   17.689548   26.207102 H          1 MOL1         0.0752
      10    C4      19.059827   18.578568   24.296243 C.3        1 MOL1        -0.1858
      11    H5      18.771522   19.596879   24.591547 H          1 MOL1         0.0752
      12    H6      18.170399   18.126824   23.836188 H          1 MOL1         0.0752
      13    C5      20.192225   18.644868   23.245853 C.3        1 MOL1        -0.1858
      14    H7      21.056955   19.176625   23.664588 H          1 MOL1         0.0752
      15    H8      20.526227   17.627770   22.999645 H          1 MOL1         0.0752
      16    C6      19.734434   19.363563   21.958202 C.3        1 MOL1        -0.1858
      17    H9      19.398455   20.379817   22.206201 H          1 MOL1         0.0752
      18    H10     18.870850   18.836478   21.529977 H          1 MOL1         0.0752
      19    C7      20.864796   19.436025   20.910120 C.3        1 MOL1        -0.1834
      20    H11     21.729331   19.965462   21.334143 H          1 MOL1         0.0752
      21    H12     21.203351   18.421084   20.659695 H          1 MOL1         0.0752
      22    C8      20.403747   20.154005   19.625759 C.3        1 MOL1        -0.2849
      23    H13     20.088768   21.183144   19.842673 H          1 MOL1         0.0764
      24    H14     21.219399   20.196700   18.892305 H          1 MOL1         0.0764
      25    H15     19.558952   19.627217   19.162950 H          1 MOL1         0.0764
@<TRIPOS>BOND
    1     1     2    1
    2     1     3    2
    3     1     4    1
    4     4     5    1
    5     4     6    1
    6     4     7    1
    7     7     8    1
    8     7     9    1
    9     7    10    1
   10    10    11    1
   11    10    12    1
   12    10    13    1
   13    13    14    1
   14    13    15    1
   15    13    16    1
   16    16    17    1
   17    16    18    1
   18    16    19    1
   19    19    20    1
   20    19    21    1
   21    19    22    1
   22    22    23    1
   23    22    24    1
   24    22    25    1
@<TRIPOS>SUBSTRUCTURE
       1 MOL1            1 RESIDUE      1      MOL     
@<SCITEGIC>MOL_PROPERTY
VM2 Rank
SciTegic.value.IntegerValue
41

@<SCITEGIC>MOL_PROPERTY
Conf_Id
SciTegic.value.IntegerValue
814

@<SCITEGIC>MOL_PROPERTY
Probability
SciTegic.value.DoubleValue
0.33

@<SCITEGIC>MOL_PROPERTY
Sum Probability
SciTegic.value.DoubleValue
94.40

@<SCITEGIC>MOL_PROPERTY
Delta G
SciTegic.value.DoubleValue
2.535

@<SCITEGIC>MOL_PROPERTY
G
SciTegic.value.DoubleValue
-5.427

@<SCITEGIC>MOL_PROPERTY
E
SciTegic.value.DoubleValue
-30.291

@<SCITEGIC>MOL_PROPERTY
-TS
SciTegic.value.DoubleValue
24.863

@<SCITEGIC>MOL_PROPERTY
U+W
SciTegic.value.DoubleValue
-50.858

@<SCITEGIC>MOL_PROPERTY
U
SciTegic.value.DoubleValue
9.443

@<SCITEGIC>MOL_PROPERTY
W
SciTegic.value.DoubleValue
-60.301

@<SCITEGIC>MOL_PROPERTY
W(PB)
SciTegic.value.DoubleValue
-62.766

@<SCITEGIC>MOL_PROPERTY
W(SA)
SciTegic.value.DoubleValue
2.465

@<SCITEGIC>MOL_PROPERTY
Valence
SciTegic.value.DoubleValue
8.294

@<SCITEGIC>MOL_PROPERTY
Coulomb
SciTegic.value.DoubleValue
0.527

@<SCITEGIC>MOL_PROPERTY
VdW
SciTegic.value.DoubleValue
0.622

@<SCITEGIC>MOL_PROPERTY
VdW6
SciTegic.value.DoubleValue
-9.564

@<SCITEGIC>MOL_PROPERTY
VdW12
SciTegic.value.DoubleValue
10.186

@<SCITEGIC>MOL_PROPERTY
Bond
SciTegic.value.DoubleValue
0.185

@<SCITEGIC>MOL_PROPERTY
Angle
SciTegic.value.DoubleValue
2.775

@<SCITEGIC>MOL_PROPERTY
Pdih
SciTegic.value.DoubleValue
5.333

@<SCITEGIC>MOL_PROPERTY
Idih
SciTegic.value.DoubleValue
0.001

@<SCITEGIC>MOL_PROPERTY
Tether
SciTegic.value.DoubleValue
0.000

@<TRIPOS>MOLECULE
guest-8_vm2.mol2 : vm2 ligand conformer 42
          25          24           1
SMALL
USER_CHARGES
 
@<TRIPOS>ATOM
       1    C1      19.878267   19.706534   26.924404 C.2        1 MOL1         0.6168
       2    O1      20.671749   19.937668   27.815711 O.co2      1 MOL1        -0.6703
       3    O2      19.129700   20.542105   26.457150 O.co2      1 MOL1        -0.6703
       4    C2      19.801016   18.281944   26.382589 C.3        1 MOL1        -0.1963
       5    H1      18.876739   18.176126   25.803380 H          1 MOL1         0.0750
       6    H2      19.705261   17.610811   27.244023 H          1 MOL1         0.0750
       7    C3      21.031632   17.857537   25.535192 C.3        1 MOL1        -0.1860
       8    H3      21.928580   17.905537   26.168077 H          1 MOL1         0.0752
       9    H4      20.919830   16.805571   25.239835 H          1 MOL1         0.0752
      10    C4      21.267429   18.719734   24.270741 C.3        1 MOL1        -0.1858
      11    H5      22.196293   18.384272   23.789615 H          1 MOL1         0.0752
      12    H6      21.430437   19.766898   24.560836 H          1 MOL1         0.0752
      13    C5      20.111876   18.639747   23.246857 C.3        1 MOL1        -0.1858
      14    H7      19.904584   17.588038   23.006851 H          1 MOL1         0.0752
      15    H8      19.196337   19.057592   23.686243 H          1 MOL1         0.0752
      16    C6      20.444537   19.409105   21.950106 C.3        1 MOL1        -0.1858
      17    H9      21.358236   18.995873   21.501365 H          1 MOL1         0.0752
      18    H10     20.653738   20.460274   22.191849 H          1 MOL1         0.0752
      19    C7      19.290385   19.335250   20.928380 C.3        1 MOL1        -0.1834
      20    H11     19.078451   18.285049   20.684245 H          1 MOL1         0.0752
      21    H12     18.375329   19.750634   21.372959 H          1 MOL1         0.0752
      22    C8      19.626409   20.104377   19.634868 C.3        1 MOL1        -0.2849
      23    H13     20.520720   19.689113   19.152024 H          1 MOL1         0.0764
      24    H14     18.795381   20.041515   18.920370 H          1 MOL1         0.0764
      25    H15     19.812287   21.165621   19.846054 H          1 MOL1         0.0764
@<TRIPOS>BOND
    1     1     2    1
    2     1     3    2
    3     1     4    1
    4     4     5    1
    5     4     6    1
    6     4     7    1
    7     7     8    1
    8     7     9    1
    9     7    10    1
   10    10    11    1
   11    10    12    1
   12    10    13    1
   13    13    14    1
   14    13    15    1
   15    13    16    1
   16    16    17    1
   17    16    18    1
   18    16    19    1
   19    19    20    1
   20    19    21    1
   21    19    22    1
   22    22    23    1
   23    22    24    1
   24    22    25    1
@<TRIPOS>SUBSTRUCTURE
       1 MOL1            1 RESIDUE      1      MOL     
@<SCITEGIC>MOL_PROPERTY
VM2 Rank
SciTegic.value.IntegerValue
42

@<SCITEGIC>MOL_PROPERTY
Conf_Id
SciTegic.value.IntegerValue
172

@<SCITEGIC>MOL_PROPERTY
Probability
SciTegic.value.DoubleValue
0.33

@<SCITEGIC>MOL_PROPERTY
Sum Probability
SciTegic.value.DoubleValue
94.73

@<SCITEGIC>MOL_PROPERTY
Delta G
SciTegic.value.DoubleValue
2.536

@<SCITEGIC>MOL_PROPERTY
G
SciTegic.value.DoubleValue
-5.426

@<SCITEGIC>MOL_PROPERTY
E
SciTegic.value.DoubleValue
-30.290

@<SCITEGIC>MOL_PROPERTY
-TS
SciTegic.value.DoubleValue
24.863

@<SCITEGIC>MOL_PROPERTY
U+W
SciTegic.value.DoubleValue
-50.857

@<SCITEGIC>MOL_PROPERTY
U
SciTegic.value.DoubleValue
9.443

@<SCITEGIC>MOL_PROPERTY
W
SciTegic.value.DoubleValue
-60.300

@<SCITEGIC>MOL_PROPERTY
W(PB)
SciTegic.value.DoubleValue
-62.764

@<SCITEGIC>MOL_PROPERTY
W(SA)
SciTegic.value.DoubleValue
2.463

@<SCITEGIC>MOL_PROPERTY
Valence
SciTegic.value.DoubleValue
8.294

@<SCITEGIC>MOL_PROPERTY
Coulomb
SciTegic.value.DoubleValue
0.528

@<SCITEGIC>MOL_PROPERTY
VdW
SciTegic.value.DoubleValue
0.622

@<SCITEGIC>MOL_PROPERTY
VdW6
SciTegic.value.DoubleValue
-9.564

@<SCITEGIC>MOL_PROPERTY
VdW12
SciTegic.value.DoubleValue
10.186

@<SCITEGIC>MOL_PROPERTY
Bond
SciTegic.value.DoubleValue
0.185

@<SCITEGIC>MOL_PROPERTY
Angle
SciTegic.value.DoubleValue
2.775

@<SCITEGIC>MOL_PROPERTY
Pdih
SciTegic.value.DoubleValue
5.333

@<SCITEGIC>MOL_PROPERTY
Idih
SciTegic.value.DoubleValue
0.001

@<SCITEGIC>MOL_PROPERTY
Tether
SciTegic.value.DoubleValue
0.000

@<TRIPOS>MOLECULE
guest-8_vm2.mol2 : vm2 ligand conformer 43
          25          24           1
SMALL
USER_CHARGES
 
@<TRIPOS>ATOM
       1    C1      20.237076   18.905319   27.280746 C.2        1 MOL1         0.6168
       2    O1      21.295478   18.942201   27.876726 O.co2      1 MOL1        -0.6703
       3    O2      19.154004   18.905322   27.831830 O.co2      1 MOL1        -0.6703
       4    C2      20.269694   18.880447   25.756857 C.3        1 MOL1        -0.1963
       5    H1      19.408493   18.295791   25.414389 H          1 MOL1         0.0750
       6    H2      21.173016   18.342997   25.444547 H          1 MOL1         0.0750
       7    C3      20.249369   20.300129   25.133032 C.3        1 MOL1        -0.1860
       8    H3      19.319578   20.812446   25.416348 H          1 MOL1         0.0752
       9    H4      21.071293   20.887571   25.565147 H          1 MOL1         0.0752
      10    C4      20.397599   20.297516   23.593005 C.3        1 MOL1        -0.1858
      11    H5      21.337164   19.797942   23.322593 H          1 MOL1         0.0752
      12    H6      20.484652   21.336524   23.247367 H          1 MOL1         0.0752
      13    C5      19.210542   19.621506   22.864553 C.3        1 MOL1        -0.1858
      14    H7      19.172523   18.553693   23.112960 H          1 MOL1         0.0752
      15    H8      18.271317   20.055119   23.233726 H          1 MOL1         0.0752
      16    C6      19.256073   19.793080   21.325257 C.3        1 MOL1        -0.1858
      17    H9      19.188627   20.862663   21.084199 H          1 MOL1         0.0752
      18    H10     18.359980   19.328052   20.892353 H          1 MOL1         0.0752
      19    C7      20.509754   19.204042   20.632209 C.3        1 MOL1        -0.1834
      20    H11     20.437172   19.399459   19.553524 H          1 MOL1         0.0752
      21    H12     21.412519   19.726795   20.974890 H          1 MOL1         0.0752
      22    C8      20.673411   17.684439   20.851785 C.3        1 MOL1        -0.2849
      23    H13     20.865868   17.452763   21.906966 H          1 MOL1         0.0764
      24    H14     19.771633   17.142709   20.538288 H          1 MOL1         0.0764
      25    H15     21.519563   17.300653   20.267421 H          1 MOL1         0.0764
@<TRIPOS>BOND
    1     1     2    1
    2     1     3    2
    3     1     4    1
    4     4     5    1
    5     4     6    1
    6     4     7    1
    7     7     8    1
    8     7     9    1
    9     7    10    1
   10    10    11    1
   11    10    12    1
   12    10    13    1
   13    13    14    1
   14    13    15    1
   15    13    16    1
   16    16    17    1
   17    16    18    1
   18    16    19    1
   19    19    20    1
   20    19    21    1
   21    19    22    1
   22    22    23    1
   23    22    24    1
   24    22    25    1
@<TRIPOS>SUBSTRUCTURE
       1 MOL1            1 RESIDUE      1      MOL     
@<SCITEGIC>MOL_PROPERTY
VM2 Rank
SciTegic.value.IntegerValue
43

@<SCITEGIC>MOL_PROPERTY
Conf_Id
SciTegic.value.IntegerValue
785

@<SCITEGIC>MOL_PROPERTY
Probability
SciTegic.value.DoubleValue
0.27

@<SCITEGIC>MOL_PROPERTY
Sum Probability
SciTegic.value.DoubleValue
95.00

@<SCITEGIC>MOL_PROPERTY
Delta G
SciTegic.value.DoubleValue
2.663

@<SCITEGIC>MOL_PROPERTY
G
SciTegic.value.DoubleValue
-5.299

@<SCITEGIC>MOL_PROPERTY
E
SciTegic.value.DoubleValue
-30.232

@<SCITEGIC>MOL_PROPERTY
-TS
SciTegic.value.DoubleValue
24.933

@<SCITEGIC>MOL_PROPERTY
U+W
SciTegic.value.DoubleValue
-50.800

@<SCITEGIC>MOL_PROPERTY
U
SciTegic.value.DoubleValue
8.419

@<SCITEGIC>MOL_PROPERTY
W
SciTegic.value.DoubleValue
-59.219

@<SCITEGIC>MOL_PROPERTY
W(PB)
SciTegic.value.DoubleValue
-61.638

@<SCITEGIC>MOL_PROPERTY
W(SA)
SciTegic.value.DoubleValue
2.419

@<SCITEGIC>MOL_PROPERTY
Valence
SciTegic.value.DoubleValue
8.961

@<SCITEGIC>MOL_PROPERTY
Coulomb
SciTegic.value.DoubleValue
-1.581

@<SCITEGIC>MOL_PROPERTY
VdW
SciTegic.value.DoubleValue
1.040

@<SCITEGIC>MOL_PROPERTY
VdW6
SciTegic.value.DoubleValue
-10.001

@<SCITEGIC>MOL_PROPERTY
VdW12
SciTegic.value.DoubleValue
11.041

@<SCITEGIC>MOL_PROPERTY
Bond
SciTegic.value.DoubleValue
0.231

@<SCITEGIC>MOL_PROPERTY
Angle
SciTegic.value.DoubleValue
3.079

@<SCITEGIC>MOL_PROPERTY
Pdih
SciTegic.value.DoubleValue
5.651

@<SCITEGIC>MOL_PROPERTY
Idih
SciTegic.value.DoubleValue
0.001

@<SCITEGIC>MOL_PROPERTY
Tether
SciTegic.value.DoubleValue
0.000

@<TRIPOS>MOLECULE
guest-8_vm2.mol2 : vm2 ligand conformer 44
          25          24           1
SMALL
USER_CHARGES
 
@<TRIPOS>ATOM
       1    C1      20.221000   19.775692   27.255590 C.2        1 MOL1         0.6168
       2    O1      21.279370   19.811508   27.851691 O.co2      1 MOL1        -0.6703
       3    O2      19.138025   19.767853   27.806809 O.co2      1 MOL1        -0.6703
       4    C2      20.254418   19.713839   25.732770 C.3        1 MOL1        -0.1963
       5    H1      21.137746   20.265216   25.389121 H          1 MOL1         0.0750
       6    H2      19.372719   20.245754   25.358011 H          1 MOL1         0.0750
       7    C3      20.286968   18.260772   25.191835 C.3        1 MOL1        -0.1860
       8    H3      21.129466   17.729834   25.656242 H          1 MOL1         0.0752
       9    H4      19.376334   17.731798   25.505169 H          1 MOL1         0.0752
      10    C4      20.436686   18.180065   23.654064 C.3        1 MOL1        -0.1858
      11    H5      20.562385   17.126780   23.368805 H          1 MOL1         0.0752
      12    H6      21.357478   18.697540   23.354335 H          1 MOL1         0.0752
      13    C5      19.226298   18.768686   22.889068 C.3        1 MOL1        -0.1858
      14    H7      18.303321   18.322566   23.283455 H          1 MOL1         0.0752
      15    H8      19.148497   19.846875   23.075689 H          1 MOL1         0.0752
      16    C6      19.279980   18.510681   21.362144 C.3        1 MOL1        -0.1858
      17    H9      18.367744   18.916436   20.904078 H          1 MOL1         0.0752
      18    H10     19.252593   17.427243   21.183052 H          1 MOL1         0.0752
      19    C7      20.511721   19.105080   20.635163 C.3        1 MOL1        -0.1834
      20    H11     21.432886   18.636802   21.006450 H          1 MOL1         0.0752
      21    H12     20.447711   18.845421   19.569566 H          1 MOL1         0.0752
      22    C8      20.618533   20.639823   20.766867 C.3        1 MOL1        -0.2849
      23    H13     20.801105   20.938745   21.806787 H          1 MOL1         0.0764
      24    H14     21.450458   21.020592   20.160517 H          1 MOL1         0.0764
      25    H15     19.697574   21.128734   20.423716 H          1 MOL1         0.0764
@<TRIPOS>BOND
    1     1     2    1
    2     1     3    2
    3     1     4    1
    4     4     5    1
    5     4     6    1
    6     4     7    1
    7     7     8    1
    8     7     9    1
    9     7    10    1
   10    10    11    1
   11    10    12    1
   12    10    13    1
   13    13    14    1
   14    13    15    1
   15    13    16    1
   16    16    17    1
   17    16    18    1
   18    16    19    1
   19    19    20    1
   20    19    21    1
   21    19    22    1
   22    22    23    1
   23    22    24    1
   24    22    25    1
@<TRIPOS>SUBSTRUCTURE
       1 MOL1            1 RESIDUE      1      MOL     
@<SCITEGIC>MOL_PROPERTY
VM2 Rank
SciTegic.value.IntegerValue
44

@<SCITEGIC>MOL_PROPERTY
Conf_Id
SciTegic.value.IntegerValue
1005

@<SCITEGIC>MOL_PROPERTY
Probability
SciTegic.value.DoubleValue
0.26

@<SCITEGIC>MOL_PROPERTY
Sum Probability
SciTegic.value.DoubleValue
95.27

@<SCITEGIC>MOL_PROPERTY
Delta G
SciTegic.value.DoubleValue
2.682

@<SCITEGIC>MOL_PROPERTY
G
SciTegic.value.DoubleValue
-5.281

@<SCITEGIC>MOL_PROPERTY
E
SciTegic.value.DoubleValue
-30.212

@<SCITEGIC>MOL_PROPERTY
-TS
SciTegic.value.DoubleValue
24.932

@<SCITEGIC>MOL_PROPERTY
U+W
SciTegic.value.DoubleValue
-50.780

@<SCITEGIC>MOL_PROPERTY
U
SciTegic.value.DoubleValue
8.420

@<SCITEGIC>MOL_PROPERTY
W
SciTegic.value.DoubleValue
-59.200

@<SCITEGIC>MOL_PROPERTY
W(PB)
SciTegic.value.DoubleValue
-61.633

@<SCITEGIC>MOL_PROPERTY
W(SA)
SciTegic.value.DoubleValue
2.434

@<SCITEGIC>MOL_PROPERTY
Valence
SciTegic.value.DoubleValue
8.961

@<SCITEGIC>MOL_PROPERTY
Coulomb
SciTegic.value.DoubleValue
-1.581

@<SCITEGIC>MOL_PROPERTY
VdW
SciTegic.value.DoubleValue
1.040

@<SCITEGIC>MOL_PROPERTY
VdW6
SciTegic.value.DoubleValue
-10.001

@<SCITEGIC>MOL_PROPERTY
VdW12
SciTegic.value.DoubleValue
11.041

@<SCITEGIC>MOL_PROPERTY
Bond
SciTegic.value.DoubleValue
0.231

@<SCITEGIC>MOL_PROPERTY
Angle
SciTegic.value.DoubleValue
3.079

@<SCITEGIC>MOL_PROPERTY
Pdih
SciTegic.value.DoubleValue
5.651

@<SCITEGIC>MOL_PROPERTY
Idih
SciTegic.value.DoubleValue
0.001

@<SCITEGIC>MOL_PROPERTY
Tether
SciTegic.value.DoubleValue
0.000

@<TRIPOS>MOLECULE
guest-8_vm2.mol2 : vm2 ligand conformer 45
          25          24           1
SMALL
USER_CHARGES
 
@<TRIPOS>ATOM
       1    C1      19.960104   19.874975   26.949190 C.2        1 MOL1         0.6168
       2    O1      20.505199   19.626123   28.006456 O.co2      1 MOL1        -0.6703
       3    O2      18.860151   20.384193   26.862574 O.co2      1 MOL1        -0.6703
       4    C2      20.687050   19.506733   25.660910 C.3        1 MOL1        -0.1963
       5    H1      21.765022   19.598510   25.839092 H          1 MOL1         0.0750
       6    H2      20.417190   20.250244   24.902211 H          1 MOL1         0.0750
       7    C3      20.345696   18.076910   25.167201 C.3        1 MOL1        -0.1860
       8    H3      20.540630   17.366023   25.981979 H          1 MOL1         0.0752
       9    H4      19.270134   18.008838   24.956502 H          1 MOL1         0.0752
      10    C4      21.161629   17.639077   23.924688 C.3        1 MOL1        -0.1858
      11    H5      20.878112   16.611152   23.660646 H          1 MOL1         0.0752
      12    H6      22.225960   17.599996   24.193750 H          1 MOL1         0.0752
      13    C5      20.997658   18.541463   22.675800 C.3        1 MOL1        -0.1858
      14    H7      21.391076   19.542607   22.891216 H          1 MOL1         0.0752
      15    H8      21.623436   18.134815   21.869916 H          1 MOL1         0.0752
      16    C6      19.535492   18.640429   22.176542 C.3        1 MOL1        -0.1858
      17    H9      18.916109   19.149433   22.926842 H          1 MOL1         0.0752
      18    H10     19.125541   17.627296   22.066920 H          1 MOL1         0.0752
      19    C7      19.399435   19.377403   20.823904 C.3        1 MOL1        -0.1834
      20    H11     20.005172   18.869017   20.061118 H          1 MOL1         0.0752
      21    H12     18.355606   19.308226   20.488056 H          1 MOL1         0.0752
      22    C8      19.800585   20.866693   20.898735 C.3        1 MOL1        -0.2849
      23    H13     19.227793   21.388997   21.676095 H          1 MOL1         0.0764
      24    H14     20.868588   20.982864   21.121430 H          1 MOL1         0.0764
      25    H15     19.604441   21.365914   19.941058 H          1 MOL1         0.0764
@<TRIPOS>BOND
    1     1     2    1
    2     1     3    2
    3     1     4    1
    4     4     5    1
    5     4     6    1
    6     4     7    1
    7     7     8    1
    8     7     9    1
    9     7    10    1
   10    10    11    1
   11    10    12    1
   12    10    13    1
   13    13    14    1
   14    13    15    1
   15    13    16    1
   16    16    17    1
   17    16    18    1
   18    16    19    1
   19    19    20    1
   20    19    21    1
   21    19    22    1
   22    22    23    1
   23    22    24    1
   24    22    25    1
@<TRIPOS>SUBSTRUCTURE
       1 MOL1            1 RESIDUE      1      MOL     
@<SCITEGIC>MOL_PROPERTY
VM2 Rank
SciTegic.value.IntegerValue
45

@<SCITEGIC>MOL_PROPERTY
Conf_Id
SciTegic.value.IntegerValue
444

@<SCITEGIC>MOL_PROPERTY
Probability
SciTegic.value.DoubleValue
0.26

@<SCITEGIC>MOL_PROPERTY
Sum Probability
SciTegic.value.DoubleValue
95.52

@<SCITEGIC>MOL_PROPERTY
Delta G
SciTegic.value.DoubleValue
2.688

@<SCITEGIC>MOL_PROPERTY
G
SciTegic.value.DoubleValue
-5.275

@<SCITEGIC>MOL_PROPERTY
E
SciTegic.value.DoubleValue
-30.252

@<SCITEGIC>MOL_PROPERTY
-TS
SciTegic.value.DoubleValue
24.977

@<SCITEGIC>MOL_PROPERTY
U+W
SciTegic.value.DoubleValue
-50.819

@<SCITEGIC>MOL_PROPERTY
U
SciTegic.value.DoubleValue
8.957

@<SCITEGIC>MOL_PROPERTY
W
SciTegic.value.DoubleValue
-59.777

@<SCITEGIC>MOL_PROPERTY
W(PB)
SciTegic.value.DoubleValue
-62.189

@<SCITEGIC>MOL_PROPERTY
W(SA)
SciTegic.value.DoubleValue
2.413

@<SCITEGIC>MOL_PROPERTY
Valence
SciTegic.value.DoubleValue
8.948

@<SCITEGIC>MOL_PROPERTY
Coulomb
SciTegic.value.DoubleValue
-0.940

@<SCITEGIC>MOL_PROPERTY
VdW
SciTegic.value.DoubleValue
0.949

@<SCITEGIC>MOL_PROPERTY
VdW6
SciTegic.value.DoubleValue
-10.176

@<SCITEGIC>MOL_PROPERTY
VdW12
SciTegic.value.DoubleValue
11.126

@<SCITEGIC>MOL_PROPERTY
Bond
SciTegic.value.DoubleValue
0.232

@<SCITEGIC>MOL_PROPERTY
Angle
SciTegic.value.DoubleValue
3.080

@<SCITEGIC>MOL_PROPERTY
Pdih
SciTegic.value.DoubleValue
5.635

@<SCITEGIC>MOL_PROPERTY
Idih
SciTegic.value.DoubleValue
0.001

@<SCITEGIC>MOL_PROPERTY
Tether
SciTegic.value.DoubleValue
0.000

@<TRIPOS>MOLECULE
guest-8_vm2.mol2 : vm2 ligand conformer 46
          25          24           1
SMALL
USER_CHARGES
 
@<TRIPOS>ATOM
       1    C1      19.600543   19.177454   26.974194 C.2        1 MOL1         0.6168
       2    O1      20.150587   18.938251   28.031123 O.co2      1 MOL1        -0.6703
       3    O2      18.544553   19.772046   26.884493 O.co2      1 MOL1        -0.6703
       4    C2      20.284657   18.726027   25.688926 C.3        1 MOL1        -0.1963
       5    H1      19.500884   18.472432   24.965982 H          1 MOL1         0.0750
       6    H2      20.841064   17.805927   25.903452 H          1 MOL1         0.0750
       7    C3      21.235450   19.803059   25.105273 C.3        1 MOL1        -0.1860
       8    H3      20.660218   20.705651   24.859718 H          1 MOL1         0.0752
       9    H4      21.950827   20.101909   25.883828 H          1 MOL1         0.0752
      10    C4      22.029175   19.322065   23.864337 C.3        1 MOL1        -0.1858
      11    H5      22.686748   18.493893   24.161745 H          1 MOL1         0.0752
      12    H6      22.693274   20.132496   23.534333 H          1 MOL1         0.0752
      13    C5      21.163287   18.862655   22.664303 C.3        1 MOL1        -0.1858
      14    H7      21.833976   18.543034   21.855336 H          1 MOL1         0.0752
      15    H8      20.583331   17.975562   22.947478 H          1 MOL1         0.0752
      16    C6      20.219358   19.966878   22.128887 C.3        1 MOL1        -0.1858
      17    H9      20.802587   20.880326   21.950072 H          1 MOL1         0.0752
      18    H10     19.467499   20.218987   22.888374 H          1 MOL1         0.0752
      19    C7      19.501218   19.574535   20.816785 C.3        1 MOL1        -0.1834
      20    H11     18.941924   20.444948   20.447018 H          1 MOL1         0.0752
      21    H12     20.244291   19.332248   20.044543 H          1 MOL1         0.0752
      22    C8      18.524171   18.391031   20.987679 C.3        1 MOL1        -0.2849
      23    H13     17.789211   18.599375   21.776100 H          1 MOL1         0.0764
      24    H14     17.976280   18.207423   20.054436 H          1 MOL1         0.0764
      25    H15     19.055917   17.467366   21.248076 H          1 MOL1         0.0764
@<TRIPOS>BOND
    1     1     2    1
    2     1     3    2
    3     1     4    1
    4     4     5    1
    5     4     6    1
    6     4     7    1
    7     7     8    1
    8     7     9    1
    9     7    10    1
   10    10    11    1
   11    10    12    1
   12    10    13    1
   13    13    14    1
   14    13    15    1
   15    13    16    1
   16    16    17    1
   17    16    18    1
   18    16    19    1
   19    19    20    1
   20    19    21    1
   21    19    22    1
   22    22    23    1
   23    22    24    1
   24    22    25    1
@<TRIPOS>SUBSTRUCTURE
       1 MOL1            1 RESIDUE      1      MOL     
@<SCITEGIC>MOL_PROPERTY
VM2 Rank
SciTegic.value.IntegerValue
46

@<SCITEGIC>MOL_PROPERTY
Conf_Id
SciTegic.value.IntegerValue
715

@<SCITEGIC>MOL_PROPERTY
Probability
SciTegic.value.DoubleValue
0.25

@<SCITEGIC>MOL_PROPERTY
Sum Probability
SciTegic.value.DoubleValue
95.78

@<SCITEGIC>MOL_PROPERTY
Delta G
SciTegic.value.DoubleValue
2.700

@<SCITEGIC>MOL_PROPERTY
G
SciTegic.value.DoubleValue
-5.262

@<SCITEGIC>MOL_PROPERTY
E
SciTegic.value.DoubleValue
-30.239

@<SCITEGIC>MOL_PROPERTY
-TS
SciTegic.value.DoubleValue
24.977

@<SCITEGIC>MOL_PROPERTY
U+W
SciTegic.value.DoubleValue
-50.807

@<SCITEGIC>MOL_PROPERTY
U
SciTegic.value.DoubleValue
8.957

@<SCITEGIC>MOL_PROPERTY
W
SciTegic.value.DoubleValue
-59.764

@<SCITEGIC>MOL_PROPERTY
W(PB)
SciTegic.value.DoubleValue
-62.187

@<SCITEGIC>MOL_PROPERTY
W(SA)
SciTegic.value.DoubleValue
2.423

@<SCITEGIC>MOL_PROPERTY
Valence
SciTegic.value.DoubleValue
8.948

@<SCITEGIC>MOL_PROPERTY
Coulomb
SciTegic.value.DoubleValue
-0.940

@<SCITEGIC>MOL_PROPERTY
VdW
SciTegic.value.DoubleValue
0.950

@<SCITEGIC>MOL_PROPERTY
VdW6
SciTegic.value.DoubleValue
-10.176

@<SCITEGIC>MOL_PROPERTY
VdW12
SciTegic.value.DoubleValue
11.126

@<SCITEGIC>MOL_PROPERTY
Bond
SciTegic.value.DoubleValue
0.232

@<SCITEGIC>MOL_PROPERTY
Angle
SciTegic.value.DoubleValue
3.080

@<SCITEGIC>MOL_PROPERTY
Pdih
SciTegic.value.DoubleValue
5.636

@<SCITEGIC>MOL_PROPERTY
Idih
SciTegic.value.DoubleValue
0.001

@<SCITEGIC>MOL_PROPERTY
Tether
SciTegic.value.DoubleValue
0.000

@<TRIPOS>MOLECULE
guest-8_vm2.mol2 : vm2 ligand conformer 47
          25          24           1
SMALL
USER_CHARGES
 
@<TRIPOS>ATOM
       1    C1      20.297504   19.371145   27.451445 C.2        1 MOL1         0.6168
       2    O1      21.395620   19.801733   27.743805 O.co2      1 MOL1        -0.6703
       3    O2      19.342869   19.396030   28.202995 O.co2      1 MOL1        -0.6703
       4    C2      20.100520   18.787953   26.056722 C.3        1 MOL1        -0.1963
       5    H1      19.345445   17.995626   26.123182 H          1 MOL1         0.0750
       6    H2      21.042887   18.315690   25.757940 H          1 MOL1         0.0750
       7    C3      19.667263   19.854311   25.017141 C.3        1 MOL1        -0.1860
       8    H3      18.776381   20.373244   25.397226 H          1 MOL1         0.0752
       9    H4      20.452957   20.616606   24.922854 H          1 MOL1         0.0752
      10    C4      19.339274   19.266267   23.623823 C.3        1 MOL1        -0.1858
      11    H5      18.910499   20.068835   23.010206 H          1 MOL1         0.0752
      12    H6      18.560682   18.497660   23.721824 H          1 MOL1         0.0752
      13    C5      20.572909   18.672440   22.900350 C.3        1 MOL1        -0.1858
      14    H7      21.350723   19.440741   22.801685 H          1 MOL1         0.0752
      15    H8      21.008619   17.875465   23.515741 H          1 MOL1         0.0752
      16    C6      20.244406   18.070361   21.510407 C.3        1 MOL1        -0.1858
      17    H9      19.530154   17.245923   21.640105 H          1 MOL1         0.0752
      18    H10     21.157319   17.617680   21.100115 H          1 MOL1         0.0752
      19    C7      19.672872   19.066048   20.470495 C.3        1 MOL1        -0.1834
      20    H11     19.479235   18.521566   19.536104 H          1 MOL1         0.0752
      21    H12     18.699144   19.447411   20.804795 H          1 MOL1         0.0752
      22    C8      20.619763   20.247712   20.168817 C.3        1 MOL1        -0.2849
      23    H13     21.608648   19.888782   19.855361 H          1 MOL1         0.0764
      24    H14     20.213155   20.869399   19.360770 H          1 MOL1         0.0764
      25    H15     20.748705   20.889695   21.049332 H          1 MOL1         0.0764
@<TRIPOS>BOND
    1     1     2    1
    2     1     3    2
    3     1     4    1
    4     4     5    1
    5     4     6    1
    6     4     7    1
    7     7     8    1
    8     7     9    1
    9     7    10    1
   10    10    11    1
   11    10    12    1
   12    10    13    1
   13    13    14    1
   14    13    15    1
   15    13    16    1
   16    16    17    1
   17    16    18    1
   18    16    19    1
   19    19    20    1
   20    19    21    1
   21    19    22    1
   22    22    23    1
   23    22    24    1
   24    22    25    1
@<TRIPOS>SUBSTRUCTURE
       1 MOL1            1 RESIDUE      1      MOL     
@<SCITEGIC>MOL_PROPERTY
VM2 Rank
SciTegic.value.IntegerValue
47

@<SCITEGIC>MOL_PROPERTY
Conf_Id
SciTegic.value.IntegerValue
699

@<SCITEGIC>MOL_PROPERTY
Probability
SciTegic.value.DoubleValue
0.22

@<SCITEGIC>MOL_PROPERTY
Sum Probability
SciTegic.value.DoubleValue
96.00

@<SCITEGIC>MOL_PROPERTY
Delta G
SciTegic.value.DoubleValue
2.780

@<SCITEGIC>MOL_PROPERTY
G
SciTegic.value.DoubleValue
-5.183

@<SCITEGIC>MOL_PROPERTY
E
SciTegic.value.DoubleValue
-30.048

@<SCITEGIC>MOL_PROPERTY
-TS
SciTegic.value.DoubleValue
24.865

@<SCITEGIC>MOL_PROPERTY
U+W
SciTegic.value.DoubleValue
-50.616

@<SCITEGIC>MOL_PROPERTY
U
SciTegic.value.DoubleValue
8.474

@<SCITEGIC>MOL_PROPERTY
W
SciTegic.value.DoubleValue
-59.089

@<SCITEGIC>MOL_PROPERTY
W(PB)
SciTegic.value.DoubleValue
-61.530

@<SCITEGIC>MOL_PROPERTY
W(SA)
SciTegic.value.DoubleValue
2.441

@<SCITEGIC>MOL_PROPERTY
Valence
SciTegic.value.DoubleValue
9.080

@<SCITEGIC>MOL_PROPERTY
Coulomb
SciTegic.value.DoubleValue
-1.772

@<SCITEGIC>MOL_PROPERTY
VdW
SciTegic.value.DoubleValue
1.165

@<SCITEGIC>MOL_PROPERTY
VdW6
SciTegic.value.DoubleValue
-9.830

@<SCITEGIC>MOL_PROPERTY
VdW12
SciTegic.value.DoubleValue
10.996

@<SCITEGIC>MOL_PROPERTY
Bond
SciTegic.value.DoubleValue
0.240

@<SCITEGIC>MOL_PROPERTY
Angle
SciTegic.value.DoubleValue
3.225

@<SCITEGIC>MOL_PROPERTY
Pdih
SciTegic.value.DoubleValue
5.615

@<SCITEGIC>MOL_PROPERTY
Idih
SciTegic.value.DoubleValue
0.001

@<SCITEGIC>MOL_PROPERTY
Tether
SciTegic.value.DoubleValue
0.000

@<TRIPOS>MOLECULE
guest-8_vm2.mol2 : vm2 ligand conformer 48
          25          24           1
SMALL
USER_CHARGES
 
@<TRIPOS>ATOM
       1    C1      19.718753   19.344046   27.160411 C.2        1 MOL1         0.6168
       2    O1      20.320706   19.037709   28.170685 O.co2      1 MOL1        -0.6703
       3    O2      18.791799   20.129612   27.141335 O.co2      1 MOL1        -0.6703
       4    C2      20.166077   18.725528   25.840900 C.3        1 MOL1        -0.1963
       5    H1      19.277192   18.605701   25.211101 H          1 MOL1         0.0750
       6    H2      20.556417   17.722304   26.049230 H          1 MOL1         0.0750
       7    C3      21.238228   19.576644   25.112527 C.3        1 MOL1        -0.1860
       8    H3      20.824011   20.565717   24.876509 H          1 MOL1         0.0752
       9    H4      22.074225   19.756376   25.802499 H          1 MOL1         0.0752
      10    C4      21.794089   18.908681   23.829350 C.3        1 MOL1        -0.1858
      11    H5      22.317656   17.984694   24.110194 H          1 MOL1         0.0752
      12    H6      22.556551   19.566831   23.390898 H          1 MOL1         0.0752
      13    C5      20.740741   18.569756   22.744096 C.3        1 MOL1        -0.1858
      14    H7      21.262359   18.082347   21.910806 H          1 MOL1         0.0752
      15    H8      20.027877   17.829925   23.130535 H          1 MOL1         0.0752
      16    C6      19.974968   19.808208   22.216885 C.3        1 MOL1        -0.1858
      17    H9      20.688340   20.548735   21.830600 H          1 MOL1         0.0752
      18    H10     19.444775   20.289137   23.048938 H          1 MOL1         0.0752
      19    C7      18.936371   19.468559   21.122259 C.3        1 MOL1        -0.1834
      20    H11     18.228262   18.719325   21.502388 H          1 MOL1         0.0752
      21    H12     18.346862   20.370134   20.905827 H          1 MOL1         0.0752
      22    C8      19.571270   18.965258   19.807550 C.3        1 MOL1        -0.2849
      23    H13     20.071163   17.998790   19.946916 H          1 MOL1         0.0764
      24    H14     18.801405   18.831829   19.036584 H          1 MOL1         0.0764
      25    H15     20.309056   19.683691   19.427268 H          1 MOL1         0.0764
@<TRIPOS>BOND
    1     1     2    1
    2     1     3    2
    3     1     4    1
    4     4     5    1
    5     4     6    1
    6     4     7    1
    7     7     8    1
    8     7     9    1
    9     7    10    1
   10    10    11    1
   11    10    12    1
   12    10    13    1
   13    13    14    1
   14    13    15    1
   15    13    16    1
   16    16    17    1
   17    16    18    1
   18    16    19    1
   19    19    20    1
   20    19    21    1
   21    19    22    1
   22    22    23    1
   23    22    24    1
   24    22    25    1
@<TRIPOS>SUBSTRUCTURE
       1 MOL1            1 RESIDUE      1      MOL     
@<SCITEGIC>MOL_PROPERTY
VM2 Rank
SciTegic.value.IntegerValue
48

@<SCITEGIC>MOL_PROPERTY
Conf_Id
SciTegic.value.IntegerValue
224

@<SCITEGIC>MOL_PROPERTY
Probability
SciTegic.value.DoubleValue
0.22

@<SCITEGIC>MOL_PROPERTY
Sum Probability
SciTegic.value.DoubleValue
96.22

@<SCITEGIC>MOL_PROPERTY
Delta G
SciTegic.value.DoubleValue
2.786

@<SCITEGIC>MOL_PROPERTY
G
SciTegic.value.DoubleValue
-5.176

@<SCITEGIC>MOL_PROPERTY
E
SciTegic.value.DoubleValue
-30.090

@<SCITEGIC>MOL_PROPERTY
-TS
SciTegic.value.DoubleValue
24.914

@<SCITEGIC>MOL_PROPERTY
U+W
SciTegic.value.DoubleValue
-50.658

@<SCITEGIC>MOL_PROPERTY
U
SciTegic.value.DoubleValue
8.774

@<SCITEGIC>MOL_PROPERTY
W
SciTegic.value.DoubleValue
-59.432

@<SCITEGIC>MOL_PROPERTY
W(PB)
SciTegic.value.DoubleValue
-61.890

@<SCITEGIC>MOL_PROPERTY
W(SA)
SciTegic.value.DoubleValue
2.459

@<SCITEGIC>MOL_PROPERTY
Valence
SciTegic.value.DoubleValue
9.062

@<SCITEGIC>MOL_PROPERTY
Coulomb
SciTegic.value.DoubleValue
-1.371

@<SCITEGIC>MOL_PROPERTY
VdW
SciTegic.value.DoubleValue
1.083

@<SCITEGIC>MOL_PROPERTY
VdW6
SciTegic.value.DoubleValue
-9.990

@<SCITEGIC>MOL_PROPERTY
VdW12
SciTegic.value.DoubleValue
11.073

@<SCITEGIC>MOL_PROPERTY
Bond
SciTegic.value.DoubleValue
0.239

@<SCITEGIC>MOL_PROPERTY
Angle
SciTegic.value.DoubleValue
3.221

@<SCITEGIC>MOL_PROPERTY
Pdih
SciTegic.value.DoubleValue
5.601

@<SCITEGIC>MOL_PROPERTY
Idih
SciTegic.value.DoubleValue
0.001

@<SCITEGIC>MOL_PROPERTY
Tether
SciTegic.value.DoubleValue
0.000

@<TRIPOS>MOLECULE
guest-8_vm2.mol2 : vm2 ligand conformer 49
          25          24           1
SMALL
USER_CHARGES
 
@<TRIPOS>ATOM
       1    C1      20.582367   19.399277   27.150402 C.2        1 MOL1         0.6168
       2    O1      21.401263   20.296263   27.111075 O.co2      1 MOL1        -0.6703
       3    O2      20.047558   19.020564   28.173828 O.co2      1 MOL1        -0.6703
       4    C2      20.187117   18.726813   25.840693 C.3        1 MOL1        -0.1963
       5    H1      19.932471   17.682409   26.056572 H          1 MOL1         0.0750
       6    H2      21.069292   18.720050   25.190427 H          1 MOL1         0.0750
       7    C3      18.998934   19.433506   25.138387 C.3        1 MOL1        -0.1860
       8    H3      18.162947   19.506451   25.847656 H          1 MOL1         0.0752
       9    H4      19.278417   20.466886   24.894334 H          1 MOL1         0.0752
      10    C4      18.503230   18.698347   23.867359 C.3        1 MOL1        -0.1858
      11    H5      17.653399   19.253542   23.447478 H          1 MOL1         0.0752
      12    H6      18.107997   17.715703   24.158819 H          1 MOL1         0.0752
      13    C5      19.565933   18.494516   22.757716 C.3        1 MOL1        -0.1858
      14    H7      20.375679   17.851761   23.126556 H          1 MOL1         0.0752
      15    H8      19.091492   17.943663   21.935834 H          1 MOL1         0.0752
      16    C6      20.155891   19.819507   22.215064 C.3        1 MOL1        -0.1858
      17    H9      20.639924   20.364824   23.035463 H          1 MOL1         0.0752
      18    H10     19.345536   20.463049   21.846724 H          1 MOL1         0.0752
      19    C7      21.203506   19.613124   21.096063 C.3        1 MOL1        -0.1834
      20    H11     21.668801   20.581935   20.867791 H          1 MOL1         0.0752
      21    H12     22.009497   18.960087   21.458264 H          1 MOL1         0.0752
      22    C8      20.607200   19.032083   19.795414 C.3        1 MOL1        -0.2849
      23    H13     19.775681   19.650815   19.433700 H          1 MOL1         0.0764
      24    H14     21.369676   18.996557   19.006584 H          1 MOL1         0.0764
      25    H15     20.237206   18.010183   19.944419 H          1 MOL1         0.0764
@<TRIPOS>BOND
    1     1     2    1
    2     1     3    2
    3     1     4    1
    4     4     5    1
    5     4     6    1
    6     4     7    1
    7     7     8    1
    8     7     9    1
    9     7    10    1
   10    10    11    1
   11    10    12    1
   12    10    13    1
   13    13    14    1
   14    13    15    1
   15    13    16    1
   16    16    17    1
   17    16    18    1
   18    16    19    1
   19    19    20    1
   20    19    21    1
   21    19    22    1
   22    22    23    1
   23    22    24    1
   24    22    25    1
@<TRIPOS>SUBSTRUCTURE
       1 MOL1            1 RESIDUE      1      MOL     
@<SCITEGIC>MOL_PROPERTY
VM2 Rank
SciTegic.value.IntegerValue
49

@<SCITEGIC>MOL_PROPERTY
Conf_Id
SciTegic.value.IntegerValue
1006

@<SCITEGIC>MOL_PROPERTY
Probability
SciTegic.value.DoubleValue
0.21

@<SCITEGIC>MOL_PROPERTY
Sum Probability
SciTegic.value.DoubleValue
96.43

@<SCITEGIC>MOL_PROPERTY
Delta G
SciTegic.value.DoubleValue
2.812

@<SCITEGIC>MOL_PROPERTY
G
SciTegic.value.DoubleValue
-5.150

@<SCITEGIC>MOL_PROPERTY
E
SciTegic.value.DoubleValue
-30.065

@<SCITEGIC>MOL_PROPERTY
-TS
SciTegic.value.DoubleValue
24.915

@<SCITEGIC>MOL_PROPERTY
U+W
SciTegic.value.DoubleValue
-50.633

@<SCITEGIC>MOL_PROPERTY
U
SciTegic.value.DoubleValue
8.774

@<SCITEGIC>MOL_PROPERTY
W
SciTegic.value.DoubleValue
-59.407

@<SCITEGIC>MOL_PROPERTY
W(PB)
SciTegic.value.DoubleValue
-61.854

@<SCITEGIC>MOL_PROPERTY
W(SA)
SciTegic.value.DoubleValue
2.447

@<SCITEGIC>MOL_PROPERTY
Valence
SciTegic.value.DoubleValue
9.062

@<SCITEGIC>MOL_PROPERTY
Coulomb
SciTegic.value.DoubleValue
-1.371

@<SCITEGIC>MOL_PROPERTY
VdW
SciTegic.value.DoubleValue
1.083

@<SCITEGIC>MOL_PROPERTY
VdW6
SciTegic.value.DoubleValue
-9.990

@<SCITEGIC>MOL_PROPERTY
VdW12
SciTegic.value.DoubleValue
11.073

@<SCITEGIC>MOL_PROPERTY
Bond
SciTegic.value.DoubleValue
0.239

@<SCITEGIC>MOL_PROPERTY
Angle
SciTegic.value.DoubleValue
3.221

@<SCITEGIC>MOL_PROPERTY
Pdih
SciTegic.value.DoubleValue
5.602

@<SCITEGIC>MOL_PROPERTY
Idih
SciTegic.value.DoubleValue
0.001

@<SCITEGIC>MOL_PROPERTY
Tether
SciTegic.value.DoubleValue
0.000

@<TRIPOS>MOLECULE
guest-8_vm2.mol2 : vm2 ligand conformer 50
          25          24           1
SMALL
USER_CHARGES
 
@<TRIPOS>ATOM
       1    C1      19.744676   19.547224   27.027692 C.2        1 MOL1         0.6168
       2    O1      20.450139   19.738593   27.998563 O.co2      1 MOL1        -0.6703
       3    O2      18.628166   20.011029   26.905141 O.co2      1 MOL1        -0.6703
       4    C2      20.299168   18.694349   25.892389 C.3        1 MOL1        -0.1963
       5    H1      19.457478   18.166545   25.429830 H          1 MOL1         0.0750
       6    H2      20.960466   17.935670   26.327423 H          1 MOL1         0.0750
       7    C3      21.065785   19.529330   24.834352 C.3        1 MOL1        -0.1860
       8    H3      20.386973   20.267119   24.386210 H          1 MOL1         0.0752
       9    H4      21.850436   20.107376   25.341602 H          1 MOL1         0.0752
      10    C4      21.723811   18.668852   23.726655 C.3        1 MOL1        -0.1858
      11    H5      22.470440   18.008116   24.187701 H          1 MOL1         0.0752
      12    H6      22.287185   19.327561   23.052773 H          1 MOL1         0.0752
      13    C5      20.742772   17.801568   22.894300 C.3        1 MOL1        -0.1858
      14    H7      21.315929   17.262532   22.127837 H          1 MOL1         0.0752
      15    H8      20.308191   17.026098   23.538552 H          1 MOL1         0.0752
      16    C6      19.594532   18.579743   22.203790 C.3        1 MOL1        -0.1858
      17    H9      18.953762   19.051911   22.960156 H          1 MOL1         0.0752
      18    H10     18.957934   17.858660   21.673365 H          1 MOL1         0.0752
      19    C7      20.089747   19.644957   21.199818 C.3        1 MOL1        -0.1834
      20    H11     20.671385   20.414701   21.724063 H          1 MOL1         0.0752
      21    H12     20.761888   19.178644   20.466461 H          1 MOL1         0.0752
      22    C8      18.914203   20.318354   20.463299 C.3        1 MOL1        -0.2849
      23    H13     18.240860   20.816660   21.172999 H          1 MOL1         0.0764
      24    H14     19.282109   21.074046   19.757216 H          1 MOL1         0.0764
      25    H15     18.330758   19.580802   19.896833 H          1 MOL1         0.0764
@<TRIPOS>BOND
    1     1     2    1
    2     1     3    2
    3     1     4    1
    4     4     5    1
    5     4     6    1
    6     4     7    1
    7     7     8    1
    8     7     9    1
    9     7    10    1
   10    10    11    1
   11    10    12    1
   12    10    13    1
   13    13    14    1
   14    13    15    1
   15    13    16    1
   16    16    17    1
   17    16    18    1
   18    16    19    1
   19    19    20    1
   20    19    21    1
   21    19    22    1
   22    22    23    1
   23    22    24    1
   24    22    25    1
@<TRIPOS>SUBSTRUCTURE
       1 MOL1            1 RESIDUE      1      MOL     
@<SCITEGIC>MOL_PROPERTY
VM2 Rank
SciTegic.value.IntegerValue
50

@<SCITEGIC>MOL_PROPERTY
Conf_Id
SciTegic.value.IntegerValue
255

@<SCITEGIC>MOL_PROPERTY
Probability
SciTegic.value.DoubleValue
0.21

@<SCITEGIC>MOL_PROPERTY
Sum Probability
SciTegic.value.DoubleValue
96.64

@<SCITEGIC>MOL_PROPERTY
Delta G
SciTegic.value.DoubleValue
2.824

@<SCITEGIC>MOL_PROPERTY
G
SciTegic.value.DoubleValue
-5.138

@<SCITEGIC>MOL_PROPERTY
E
SciTegic.value.DoubleValue
-30.315

@<SCITEGIC>MOL_PROPERTY
-TS
SciTegic.value.DoubleValue
25.177

@<SCITEGIC>MOL_PROPERTY
U+W
SciTegic.value.DoubleValue
-50.883

@<SCITEGIC>MOL_PROPERTY
U
SciTegic.value.DoubleValue
8.897

@<SCITEGIC>MOL_PROPERTY
W
SciTegic.value.DoubleValue
-59.781

@<SCITEGIC>MOL_PROPERTY
W(PB)
SciTegic.value.DoubleValue
-62.194

@<SCITEGIC>MOL_PROPERTY
W(SA)
SciTegic.value.DoubleValue
2.414

@<SCITEGIC>MOL_PROPERTY
Valence
SciTegic.value.DoubleValue
8.932

@<SCITEGIC>MOL_PROPERTY
Coulomb
SciTegic.value.DoubleValue
-0.846

@<SCITEGIC>MOL_PROPERTY
VdW
SciTegic.value.DoubleValue
0.811

@<SCITEGIC>MOL_PROPERTY
VdW6
SciTegic.value.DoubleValue
-10.411

@<SCITEGIC>MOL_PROPERTY
VdW12
SciTegic.value.DoubleValue
11.222

@<SCITEGIC>MOL_PROPERTY
Bond
SciTegic.value.DoubleValue
0.240

@<SCITEGIC>MOL_PROPERTY
Angle
SciTegic.value.DoubleValue
3.240

@<SCITEGIC>MOL_PROPERTY
Pdih
SciTegic.value.DoubleValue
5.452

@<SCITEGIC>MOL_PROPERTY
Idih
SciTegic.value.DoubleValue
0.001

@<SCITEGIC>MOL_PROPERTY
Tether
SciTegic.value.DoubleValue
0.000

@<TRIPOS>MOLECULE
guest-8_vm2.mol2 : vm2 ligand conformer 51
          25          24           1
SMALL
USER_CHARGES
 
@<TRIPOS>ATOM
       1    C1      19.826755   19.407642   27.270485 C.2        1 MOL1         0.6168
       2    O1      20.739474   19.626340   28.042403 O.co2      1 MOL1        -0.6703
       3    O2      18.717262   19.889713   27.385876 O.co2      1 MOL1        -0.6703
       4    C2      20.093796   18.492108   26.081090 C.3        1 MOL1        -0.1963
       5    H1      19.163490   17.962498   25.843147 H          1 MOL1         0.0750
       6    H2      20.827035   17.737516   26.390014 H          1 MOL1         0.0750
       7    C3      20.605406   19.257578   24.835993 C.3        1 MOL1        -0.1860
       8    H3      19.864791   20.019311   24.558434 H          1 MOL1         0.0752
       9    H4      21.532256   19.789400   25.091444 H          1 MOL1         0.0752
      10    C4      20.860955   18.307354   23.643347 C.3        1 MOL1        -0.1858
      11    H5      19.926262   17.805123   23.361356 H          1 MOL1         0.0752
      12    H6      21.549815   17.512782   23.960757 H          1 MOL1         0.0752
      13    C5      21.471128   19.017472   22.408939 C.3        1 MOL1        -0.1858
      14    H7      22.449771   19.431729   22.686642 H          1 MOL1         0.0752
      15    H8      21.675792   18.267455   21.633717 H          1 MOL1         0.0752
      16    C6      20.606238   20.154850   21.803829 C.3        1 MOL1        -0.1858
      17    H9      21.129990   20.565192   20.929875 H          1 MOL1         0.0752
      18    H10     20.538142   20.981493   22.523058 H          1 MOL1         0.0752
      19    C7      19.175969   19.740659   21.378502 C.3        1 MOL1        -0.1834
      20    H11     18.602336   19.409564   22.254377 H          1 MOL1         0.0752
      21    H12     18.655067   20.627167   20.991632 H          1 MOL1         0.0752
      22    C8      19.156018   18.640285   20.295536 C.3        1 MOL1        -0.2849
      23    H13     19.572489   17.699166   20.676052 H          1 MOL1         0.0764
      24    H14     18.127281   18.441264   19.968702 H          1 MOL1         0.0764
      25    H15     19.738197   18.944295   19.416001 H          1 MOL1         0.0764
@<TRIPOS>BOND
    1     1     2    1
    2     1     3    2
    3     1     4    1
    4     4     5    1
    5     4     6    1
    6     4     7    1
    7     7     8    1
    8     7     9    1
    9     7    10    1
   10    10    11    1
   11    10    12    1
   12    10    13    1
   13    13    14    1
   14    13    15    1
   15    13    16    1
   16    16    17    1
   17    16    18    1
   18    16    19    1
   19    19    20    1
   20    19    21    1
   21    19    22    1
   22    22    23    1
   23    22    24    1
   24    22    25    1
@<TRIPOS>SUBSTRUCTURE
       1 MOL1            1 RESIDUE      1      MOL     
@<SCITEGIC>MOL_PROPERTY
VM2 Rank
SciTegic.value.IntegerValue
51

@<SCITEGIC>MOL_PROPERTY
Conf_Id
SciTegic.value.IntegerValue
885

@<SCITEGIC>MOL_PROPERTY
Probability
SciTegic.value.DoubleValue
0.20

@<SCITEGIC>MOL_PROPERTY
Sum Probability
SciTegic.value.DoubleValue
96.84

@<SCITEGIC>MOL_PROPERTY
Delta G
SciTegic.value.DoubleValue
2.828

@<SCITEGIC>MOL_PROPERTY
G
SciTegic.value.DoubleValue
-5.135

@<SCITEGIC>MOL_PROPERTY
E
SciTegic.value.DoubleValue
-30.278

@<SCITEGIC>MOL_PROPERTY
-TS
SciTegic.value.DoubleValue
25.143

@<SCITEGIC>MOL_PROPERTY
U+W
SciTegic.value.DoubleValue
-50.845

@<SCITEGIC>MOL_PROPERTY
U
SciTegic.value.DoubleValue
8.647

@<SCITEGIC>MOL_PROPERTY
W
SciTegic.value.DoubleValue
-59.492

@<SCITEGIC>MOL_PROPERTY
W(PB)
SciTegic.value.DoubleValue
-61.923

@<SCITEGIC>MOL_PROPERTY
W(SA)
SciTegic.value.DoubleValue
2.431

@<SCITEGIC>MOL_PROPERTY
Valence
SciTegic.value.DoubleValue
8.924

@<SCITEGIC>MOL_PROPERTY
Coulomb
SciTegic.value.DoubleValue
-1.171

@<SCITEGIC>MOL_PROPERTY
VdW
SciTegic.value.DoubleValue
0.894

@<SCITEGIC>MOL_PROPERTY
VdW6
SciTegic.value.DoubleValue
-10.224

@<SCITEGIC>MOL_PROPERTY
VdW12
SciTegic.value.DoubleValue
11.117

@<SCITEGIC>MOL_PROPERTY
Bond
SciTegic.value.DoubleValue
0.231

@<SCITEGIC>MOL_PROPERTY
Angle
SciTegic.value.DoubleValue
3.232

@<SCITEGIC>MOL_PROPERTY
Pdih
SciTegic.value.DoubleValue
5.461

@<SCITEGIC>MOL_PROPERTY
Idih
SciTegic.value.DoubleValue
0.001

@<SCITEGIC>MOL_PROPERTY
Tether
SciTegic.value.DoubleValue
0.000

@<TRIPOS>MOLECULE
guest-8_vm2.mol2 : vm2 ligand conformer 52
          25          24           1
SMALL
USER_CHARGES
 
@<TRIPOS>ATOM
       1    C1      20.011696   19.352917   27.454741 C.2        1 MOL1         0.6168
       2    O1      20.972435   19.499938   28.184222 O.co2      1 MOL1        -0.6703
       3    O2      18.874796   19.641040   27.772833 O.co2      1 MOL1        -0.6703
       4    C2      20.249098   18.797409   26.055019 C.3        1 MOL1        -0.1963
       5    H1      19.367788   18.208747   25.777295 H          1 MOL1         0.0750
       6    H2      21.100091   18.107588   26.102958 H          1 MOL1         0.0750
       7    C3      20.519282   19.908646   25.007305 C.3        1 MOL1        -0.1860
       8    H3      19.641093   20.564726   24.932198 H          1 MOL1         0.0752
       9    H4      21.345452   20.537192   25.367584 H          1 MOL1         0.0752
      10    C4      20.887287   19.365027   23.605963 C.3        1 MOL1        -0.1858
      11    H5      21.759370   18.701852   23.684927 H          1 MOL1         0.0752
      12    H6      21.196267   20.214710   22.983822 H          1 MOL1         0.0752
      13    C5      19.722916   18.618020   22.910171 C.3        1 MOL1        -0.1858
      14    H7      19.406480   17.772929   23.534198 H          1 MOL1         0.0752
      15    H8      18.851581   19.280940   22.830643 H          1 MOL1         0.0752
      16    C6      20.093260   18.060722   21.512091 C.3        1 MOL1        -0.1858
      17    H9      19.236185   17.494941   21.122237 H          1 MOL1         0.0752
      18    H10     20.909446   17.334094   21.624017 H          1 MOL1         0.0752
      19    C7      20.509279   19.119613   20.460832 C.3        1 MOL1        -0.1834
      20    H11     21.433957   19.622328   20.773223 H          1 MOL1         0.0752
      21    H12     20.749118   18.602903   19.521400 H          1 MOL1         0.0752
      22    C8      19.412951   20.170669   20.182823 C.3        1 MOL1        -0.2849
      23    H13     19.223551   20.792201   21.067075 H          1 MOL1         0.0764
      24    H14     19.718432   20.837976   19.366644 H          1 MOL1         0.0764
      25    H15     18.470892   19.688310   19.891566 H          1 MOL1         0.0764
@<TRIPOS>BOND
    1     1     2    1
    2     1     3    2
    3     1     4    1
    4     4     5    1
    5     4     6    1
    6     4     7    1
    7     7     8    1
    8     7     9    1
    9     7    10    1
   10    10    11    1
   11    10    12    1
   12    10    13    1
   13    13    14    1
   14    13    15    1
   15    13    16    1
   16    16    17    1
   17    16    18    1
   18    16    19    1
   19    19    20    1
   20    19    21    1
   21    19    22    1
   22    22    23    1
   23    22    24    1
   24    22    25    1
@<TRIPOS>SUBSTRUCTURE
       1 MOL1            1 RESIDUE      1      MOL     
@<SCITEGIC>MOL_PROPERTY
VM2 Rank
SciTegic.value.IntegerValue
52

@<SCITEGIC>MOL_PROPERTY
Conf_Id
SciTegic.value.IntegerValue
697

@<SCITEGIC>MOL_PROPERTY
Probability
SciTegic.value.DoubleValue
0.19

@<SCITEGIC>MOL_PROPERTY
Sum Probability
SciTegic.value.DoubleValue
97.03

@<SCITEGIC>MOL_PROPERTY
Delta G
SciTegic.value.DoubleValue
2.869

@<SCITEGIC>MOL_PROPERTY
G
SciTegic.value.DoubleValue
-5.093

@<SCITEGIC>MOL_PROPERTY
E
SciTegic.value.DoubleValue
-29.959

@<SCITEGIC>MOL_PROPERTY
-TS
SciTegic.value.DoubleValue
24.866

@<SCITEGIC>MOL_PROPERTY
U+W
SciTegic.value.DoubleValue
-50.527

@<SCITEGIC>MOL_PROPERTY
U
SciTegic.value.DoubleValue
8.474

@<SCITEGIC>MOL_PROPERTY
W
SciTegic.value.DoubleValue
-59.000

@<SCITEGIC>MOL_PROPERTY
W(PB)
SciTegic.value.DoubleValue
-61.454

@<SCITEGIC>MOL_PROPERTY
W(SA)
SciTegic.value.DoubleValue
2.453

@<SCITEGIC>MOL_PROPERTY
Valence
SciTegic.value.DoubleValue
9.080

@<SCITEGIC>MOL_PROPERTY
Coulomb
SciTegic.value.DoubleValue
-1.772

@<SCITEGIC>MOL_PROPERTY
VdW
SciTegic.value.DoubleValue
1.165

@<SCITEGIC>MOL_PROPERTY
VdW6
SciTegic.value.DoubleValue
-9.830

@<SCITEGIC>MOL_PROPERTY
VdW12
SciTegic.value.DoubleValue
10.995

@<SCITEGIC>MOL_PROPERTY
Bond
SciTegic.value.DoubleValue
0.240

@<SCITEGIC>MOL_PROPERTY
Angle
SciTegic.value.DoubleValue
3.225

@<SCITEGIC>MOL_PROPERTY
Pdih
SciTegic.value.DoubleValue
5.614

@<SCITEGIC>MOL_PROPERTY
Idih
SciTegic.value.DoubleValue
0.001

@<SCITEGIC>MOL_PROPERTY
Tether
SciTegic.value.DoubleValue
0.000

@<TRIPOS>MOLECULE
guest-8_vm2.mol2 : vm2 ligand conformer 53
          25          24           1
SMALL
USER_CHARGES
 
@<TRIPOS>ATOM
       1    C1      20.469677   19.448594   27.263192 C.2        1 MOL1         0.6168
       2    O1      21.511210   20.068012   27.353832 O.co2      1 MOL1        -0.6703
       3    O2      19.554505   19.550539   28.056168 O.co2      1 MOL1        -0.6703
       4    C2      20.293999   18.504889   26.078826 C.3        1 MOL1        -0.1963
       5    H1      19.669882   17.663656   26.403304 H          1 MOL1         0.0750
       6    H2      21.278374   18.097483   25.818822 H          1 MOL1         0.0750
       7    C3      19.660845   19.197402   24.846962 C.3        1 MOL1        -0.1860
       8    H3      18.680085   19.607589   25.124449 H          1 MOL1         0.0752
       9    H4      20.292154   20.046616   24.553584 H          1 MOL1         0.0752
      10    C4      19.500657   18.220703   23.659096 C.3        1 MOL1        -0.1858
      11    H5      18.925786   17.345535   23.991098 H          1 MOL1         0.0752
      12    H6      20.484822   17.840847   23.354900 H          1 MOL1         0.0752
      13    C5      18.776960   18.845809   22.440144 C.3        1 MOL1        -0.1858
      14    H7      18.651290   18.074738   21.668759 H          1 MOL1         0.0752
      15    H8      17.760330   19.132929   22.740973 H          1 MOL1         0.0752
      16    C6      19.476311   20.082856   21.816894 C.3        1 MOL1        -0.1858
      17    H9      19.455659   20.912481   22.535618 H          1 MOL1         0.0752
      18    H10     18.884609   20.422201   20.955951 H          1 MOL1         0.0752
      19    C7      20.937309   19.852833   21.357868 C.3        1 MOL1        -0.1834
      20    H11     21.332440   20.797711   20.960398 H          1 MOL1         0.0752
      21    H12     21.568478   19.598401   22.219682 H          1 MOL1         0.0752
      22    C8      21.071526   18.762363   20.273017 C.3        1 MOL1        -0.2849
      23    H13     20.435208   18.988828   19.407715 H          1 MOL1         0.0764
      24    H14     22.109322   18.694993   19.922065 H          1 MOL1         0.0764
      25    H15     20.786760   17.776547   20.661631 H          1 MOL1         0.0764
@<TRIPOS>BOND
    1     1     2    1
    2     1     3    2
    3     1     4    1
    4     4     5    1
    5     4     6    1
    6     4     7    1
    7     7     8    1
    8     7     9    1
    9     7    10    1
   10    10    11    1
   11    10    12    1
   12    10    13    1
   13    13    14    1
   14    13    15    1
   15    13    16    1
   16    16    17    1
   17    16    18    1
   18    16    19    1
   19    19    20    1
   20    19    21    1
   21    19    22    1
   22    22    23    1
   23    22    24    1
   24    22    25    1
@<TRIPOS>SUBSTRUCTURE
       1 MOL1            1 RESIDUE      1      MOL     
@<SCITEGIC>MOL_PROPERTY
VM2 Rank
SciTegic.value.IntegerValue
53

@<SCITEGIC>MOL_PROPERTY
Conf_Id
SciTegic.value.IntegerValue
29

@<SCITEGIC>MOL_PROPERTY
Probability
SciTegic.value.DoubleValue
0.18

@<SCITEGIC>MOL_PROPERTY
Sum Probability
SciTegic.value.DoubleValue
97.22

@<SCITEGIC>MOL_PROPERTY
Delta G
SciTegic.value.DoubleValue
2.893

@<SCITEGIC>MOL_PROPERTY
G
SciTegic.value.DoubleValue
-5.069

@<SCITEGIC>MOL_PROPERTY
E
SciTegic.value.DoubleValue
-30.212

@<SCITEGIC>MOL_PROPERTY
-TS
SciTegic.value.DoubleValue
25.143

@<SCITEGIC>MOL_PROPERTY
U+W
SciTegic.value.DoubleValue
-50.780

@<SCITEGIC>MOL_PROPERTY
U
SciTegic.value.DoubleValue
8.646

@<SCITEGIC>MOL_PROPERTY
W
SciTegic.value.DoubleValue
-59.426

@<SCITEGIC>MOL_PROPERTY
W(PB)
SciTegic.value.DoubleValue
-61.868

@<SCITEGIC>MOL_PROPERTY
W(SA)
SciTegic.value.DoubleValue
2.442

@<SCITEGIC>MOL_PROPERTY
Valence
SciTegic.value.DoubleValue
8.924

@<SCITEGIC>MOL_PROPERTY
Coulomb
SciTegic.value.DoubleValue
-1.171

@<SCITEGIC>MOL_PROPERTY
VdW
SciTegic.value.DoubleValue
0.894

@<SCITEGIC>MOL_PROPERTY
VdW6
SciTegic.value.DoubleValue
-10.223

@<SCITEGIC>MOL_PROPERTY
VdW12
SciTegic.value.DoubleValue
11.117

@<SCITEGIC>MOL_PROPERTY
Bond
SciTegic.value.DoubleValue
0.231

@<SCITEGIC>MOL_PROPERTY
Angle
SciTegic.value.DoubleValue
3.232

@<SCITEGIC>MOL_PROPERTY
Pdih
SciTegic.value.DoubleValue
5.461

@<SCITEGIC>MOL_PROPERTY
Idih
SciTegic.value.DoubleValue
0.001

@<SCITEGIC>MOL_PROPERTY
Tether
SciTegic.value.DoubleValue
0.000

@<TRIPOS>MOLECULE
guest-8_vm2.mol2 : vm2 ligand conformer 54
          25          24           1
SMALL
USER_CHARGES
 
@<TRIPOS>ATOM
       1    C1      19.972666   19.163014   27.202404 C.2        1 MOL1         0.6168
       2    O1      20.870104   18.459833   27.623372 O.co2      1 MOL1        -0.6703
       3    O2      18.793889   18.932309   27.387776 O.co2      1 MOL1        -0.6703
       4    C2      20.344621   20.415875   26.414413 C.3        1 MOL1        -0.1963
       5    H1      21.387575   20.672236   26.636436 H          1 MOL1         0.0750
       6    H2      19.727749   21.238393   26.795072 H          1 MOL1         0.0750
       7    C3      20.139642   20.280060   24.883268 C.3        1 MOL1        -0.1860
       8    H3      19.095027   20.004218   24.687096 H          1 MOL1         0.0752
       9    H4      20.303562   21.258917   24.412900 H          1 MOL1         0.0752
      10    C4      21.094905   19.241727   24.247703 C.3        1 MOL1        -0.1858
      11    H5      20.892220   18.244888   24.663026 H          1 MOL1         0.0752
      12    H6      22.128307   19.488502   24.526954 H          1 MOL1         0.0752
      13    C5      21.002299   19.185803   22.704299 C.3        1 MOL1        -0.1858
      14    H7      21.225506   20.178890   22.292943 H          1 MOL1         0.0752
      15    H8      21.784634   18.510441   22.332304 H          1 MOL1         0.0752
      16    C6      19.626711   18.695438   22.189778 C.3        1 MOL1        -0.1858
      17    H9      18.847121   19.424802   22.445555 H          1 MOL1         0.0752
      18    H10     19.363410   17.762154   22.705896 H          1 MOL1         0.0752
      19    C7      19.600066   18.439495   20.664887 C.3        1 MOL1        -0.1834
      20    H11     20.364905   17.696568   20.399661 H          1 MOL1         0.0752
      21    H12     18.630969   17.995584   20.398437 H          1 MOL1         0.0752
      22    C8      19.808097   19.720446   19.828100 C.3        1 MOL1        -0.2849
      23    H13     19.697183   19.502431   18.758033 H          1 MOL1         0.0764
      24    H14     19.070209   20.488143   20.095086 H          1 MOL1         0.0764
      25    H15     20.810880   20.139046   19.979819 H          1 MOL1         0.0764
@<TRIPOS>BOND
    1     1     2    1
    2     1     3    2
    3     1     4    1
    4     4     5    1
    5     4     6    1
    6     4     7    1
    7     7     8    1
    8     7     9    1
    9     7    10    1
   10    10    11    1
   11    10    12    1
   12    10    13    1
   13    13    14    1
   14    13    15    1
   15    13    16    1
   16    16    17    1
   17    16    18    1
   18    16    19    1
   19    19    20    1
   20    19    21    1
   21    19    22    1
   22    22    23    1
   23    22    24    1
   24    22    25    1
@<TRIPOS>SUBSTRUCTURE
       1 MOL1            1 RESIDUE      1      MOL     
@<SCITEGIC>MOL_PROPERTY
VM2 Rank
SciTegic.value.IntegerValue
54

@<SCITEGIC>MOL_PROPERTY
Conf_Id
SciTegic.value.IntegerValue
445

@<SCITEGIC>MOL_PROPERTY
Probability
SciTegic.value.DoubleValue
0.12

@<SCITEGIC>MOL_PROPERTY
Sum Probability
SciTegic.value.DoubleValue
97.33

@<SCITEGIC>MOL_PROPERTY
Delta G
SciTegic.value.DoubleValue
3.171

@<SCITEGIC>MOL_PROPERTY
G
SciTegic.value.DoubleValue
-4.791

@<SCITEGIC>MOL_PROPERTY
E
SciTegic.value.DoubleValue
-29.739

@<SCITEGIC>MOL_PROPERTY
-TS
SciTegic.value.DoubleValue
24.948

@<SCITEGIC>MOL_PROPERTY
U+W
SciTegic.value.DoubleValue
-50.307

@<SCITEGIC>MOL_PROPERTY
U
SciTegic.value.DoubleValue
9.531

@<SCITEGIC>MOL_PROPERTY
W
SciTegic.value.DoubleValue
-59.838

@<SCITEGIC>MOL_PROPERTY
W(PB)
SciTegic.value.DoubleValue
-62.314

@<SCITEGIC>MOL_PROPERTY
W(SA)
SciTegic.value.DoubleValue
2.476

@<SCITEGIC>MOL_PROPERTY
Valence
SciTegic.value.DoubleValue
8.779

@<SCITEGIC>MOL_PROPERTY
Coulomb
SciTegic.value.DoubleValue
-0.178

@<SCITEGIC>MOL_PROPERTY
VdW
SciTegic.value.DoubleValue
0.930

@<SCITEGIC>MOL_PROPERTY
VdW6
SciTegic.value.DoubleValue
-9.874

@<SCITEGIC>MOL_PROPERTY
VdW12
SciTegic.value.DoubleValue
10.804

@<SCITEGIC>MOL_PROPERTY
Bond
SciTegic.value.DoubleValue
0.204

@<SCITEGIC>MOL_PROPERTY
Angle
SciTegic.value.DoubleValue
2.848

@<SCITEGIC>MOL_PROPERTY
Pdih
SciTegic.value.DoubleValue
5.726

@<SCITEGIC>MOL_PROPERTY
Idih
SciTegic.value.DoubleValue
0.001

@<SCITEGIC>MOL_PROPERTY
Tether
SciTegic.value.DoubleValue
0.000

@<TRIPOS>MOLECULE
guest-8_vm2.mol2 : vm2 ligand conformer 55
          25          24           1
SMALL
USER_CHARGES
 
@<TRIPOS>ATOM
       1    C1      20.008108   19.468230   27.197494 C.2        1 MOL1         0.6168
       2    O1      21.044120   19.960437   27.599344 O.co2      1 MOL1        -0.6703
       3    O2      18.914012   19.968054   27.371359 O.co2      1 MOL1        -0.6703
       4    C2      20.080732   18.139097   26.451120 C.3        1 MOL1        -0.1963
       5    H1      19.293529   17.491988   26.855507 H          1 MOL1         0.0750
       6    H2      21.038239   17.658201   26.684971 H          1 MOL1         0.0750
       7    C3      19.906516   18.269441   24.915696 C.3        1 MOL1        -0.1860
       8    H3      19.840457   17.264594   24.477298 H          1 MOL1         0.0752
       9    H4      18.951946   18.770502   24.707063 H          1 MOL1         0.0752
      10    C4      21.071540   19.041044   24.250898 C.3        1 MOL1        -0.1858
      11    H5      22.022166   18.573549   24.541690 H          1 MOL1         0.0752
      12    H6      21.103681   20.070532   24.633496 H          1 MOL1         0.0752
      13    C5      20.988496   19.067455   22.706163 C.3        1 MOL1        -0.1858
      14    H7      21.903054   19.534046   22.315752 H          1 MOL1         0.0752
      15    H8      20.977431   18.037050   22.327477 H          1 MOL1         0.0752
      16    C6      19.759409   19.842420   22.171181 C.3        1 MOL1        -0.1858
      17    H9      19.718044   20.827064   22.656449 H          1 MOL1         0.0752
      18    H10     18.834782   19.318844   22.447024 H          1 MOL1         0.0752
      19    C7      19.786453   20.049165   20.638851 C.3        1 MOL1        -0.1834
      20    H11     18.943335   20.693887   20.354799 H          1 MOL1         0.0752
      21    H12     20.699738   20.589088   20.353094 H          1 MOL1         0.0752
      22    C8      19.693614   18.728657   19.843895 C.3        1 MOL1        -0.2849
      23    H13     18.800887   18.158561   20.132247 H          1 MOL1         0.0764
      24    H14     19.631655   18.932160   18.767038 H          1 MOL1         0.0764
      25    H15     20.574873   18.097212   20.012648 H          1 MOL1         0.0764
@<TRIPOS>BOND
    1     1     2    1
    2     1     3    2
    3     1     4    1
    4     4     5    1
    5     4     6    1
    6     4     7    1
    7     7     8    1
    8     7     9    1
    9     7    10    1
   10    10    11    1
   11    10    12    1
   12    10    13    1
   13    13    14    1
   14    13    15    1
   15    13    16    1
   16    16    17    1
   17    16    18    1
   18    16    19    1
   19    19    20    1
   20    19    21    1
   21    19    22    1
   22    22    23    1
   23    22    24    1
   24    22    25    1
@<TRIPOS>SUBSTRUCTURE
       1 MOL1            1 RESIDUE      1      MOL     
@<SCITEGIC>MOL_PROPERTY
VM2 Rank
SciTegic.value.IntegerValue
55

@<SCITEGIC>MOL_PROPERTY
Conf_Id
SciTegic.value.IntegerValue
963

@<SCITEGIC>MOL_PROPERTY
Probability
SciTegic.value.DoubleValue
0.11

@<SCITEGIC>MOL_PROPERTY
Sum Probability
SciTegic.value.DoubleValue
97.44

@<SCITEGIC>MOL_PROPERTY
Delta G
SciTegic.value.DoubleValue
3.206

@<SCITEGIC>MOL_PROPERTY
G
SciTegic.value.DoubleValue
-4.756

@<SCITEGIC>MOL_PROPERTY
E
SciTegic.value.DoubleValue
-29.704

@<SCITEGIC>MOL_PROPERTY
-TS
SciTegic.value.DoubleValue
24.948

@<SCITEGIC>MOL_PROPERTY
U+W
SciTegic.value.DoubleValue
-50.271

@<SCITEGIC>MOL_PROPERTY
U
SciTegic.value.DoubleValue
9.530

@<SCITEGIC>MOL_PROPERTY
W
SciTegic.value.DoubleValue
-59.801

@<SCITEGIC>MOL_PROPERTY
W(PB)
SciTegic.value.DoubleValue
-62.267

@<SCITEGIC>MOL_PROPERTY
W(SA)
SciTegic.value.DoubleValue
2.465

@<SCITEGIC>MOL_PROPERTY
Valence
SciTegic.value.DoubleValue
8.779

@<SCITEGIC>MOL_PROPERTY
Coulomb
SciTegic.value.DoubleValue
-0.179

@<SCITEGIC>MOL_PROPERTY
VdW
SciTegic.value.DoubleValue
0.930

@<SCITEGIC>MOL_PROPERTY
VdW6
SciTegic.value.DoubleValue
-9.874

@<SCITEGIC>MOL_PROPERTY
VdW12
SciTegic.value.DoubleValue
10.804

@<SCITEGIC>MOL_PROPERTY
Bond
SciTegic.value.DoubleValue
0.204

@<SCITEGIC>MOL_PROPERTY
Angle
SciTegic.value.DoubleValue
2.848

@<SCITEGIC>MOL_PROPERTY
Pdih
SciTegic.value.DoubleValue
5.726

@<SCITEGIC>MOL_PROPERTY
Idih
SciTegic.value.DoubleValue
0.001

@<SCITEGIC>MOL_PROPERTY
Tether
SciTegic.value.DoubleValue
0.000

@<TRIPOS>MOLECULE
guest-8_vm2.mol2 : vm2 ligand conformer 56
          25          24           1
SMALL
USER_CHARGES
 
@<TRIPOS>ATOM
       1    C1      20.029976   19.191397   27.319954 C.2        1 MOL1         0.6168
       2    O1      21.071306   18.716175   27.728436 O.co2      1 MOL1        -0.6703
       3    O2      18.931777   18.789282   27.650672 O.co2      1 MOL1        -0.6703
       4    C2      20.102921   20.369605   26.352665 C.3        1 MOL1        -0.1963
       5    H1      21.100152   20.820457   26.423937 H          1 MOL1         0.0750
       6    H2      19.387925   21.123870   26.701700 H          1 MOL1         0.0750
       7    C3      19.786756   19.999072   24.880172 C.3        1 MOL1        -0.1860
       8    H3      18.802750   19.512569   24.830478 H          1 MOL1         0.0752
       9    H4      19.712236   20.925518   24.296676 H          1 MOL1         0.0752
      10    C4      20.860599   19.075623   24.256207 C.3        1 MOL1        -0.1858
      11    H5      20.969231   18.176422   24.877980 H          1 MOL1         0.0752
      12    H6      21.836329   19.580128   24.269593 H          1 MOL1         0.0752
      13    C5      20.525872   18.631284   22.812389 C.3        1 MOL1        -0.1858
      14    H7      21.272702   17.891449   22.493886 H          1 MOL1         0.0752
      15    H8      19.555977   18.116862   22.809308 H          1 MOL1         0.0752
      16    C6      20.509957   19.799765   21.796475 C.3        1 MOL1        -0.1858
      17    H9      21.437047   20.379326   21.902484 H          1 MOL1         0.0752
      18    H10     19.683906   20.485954   22.024113 H          1 MOL1         0.0752
      19    C7      20.387735   19.331008   20.327844 C.3        1 MOL1        -0.1834
      20    H11     20.490540   20.204194   19.668920 H          1 MOL1         0.0752
      21    H12     21.220542   18.657590   20.082465 H          1 MOL1         0.0752
      22    C8      19.046101   18.630789   20.021185 C.3        1 MOL1        -0.2849
      23    H13     18.197427   19.275857   20.283405 H          1 MOL1         0.0764
      24    H14     18.972472   18.393024   18.952110 H          1 MOL1         0.0764
      25    H15     18.948998   17.690533   20.578248 H          1 MOL1         0.0764
@<TRIPOS>BOND
    1     1     2    1
    2     1     3    2
    3     1     4    1
    4     4     5    1
    5     4     6    1
    6     4     7    1
    7     7     8    1
    8     7     9    1
    9     7    10    1
   10    10    11    1
   11    10    12    1
   12    10    13    1
   13    13    14    1
   14    13    15    1
   15    13    16    1
   16    16    17    1
   17    16    18    1
   18    16    19    1
   19    19    20    1
   20    19    21    1
   21    19    22    1
   22    22    23    1
   23    22    24    1
   24    22    25    1
@<TRIPOS>SUBSTRUCTURE
       1 MOL1            1 RESIDUE      1      MOL     
@<SCITEGIC>MOL_PROPERTY
VM2 Rank
SciTegic.value.IntegerValue
56

@<SCITEGIC>MOL_PROPERTY
Conf_Id
SciTegic.value.IntegerValue
798

@<SCITEGIC>MOL_PROPERTY
Probability
SciTegic.value.DoubleValue
0.11

@<SCITEGIC>MOL_PROPERTY
Sum Probability
SciTegic.value.DoubleValue
97.55

@<SCITEGIC>MOL_PROPERTY
Delta G
SciTegic.value.DoubleValue
3.212

@<SCITEGIC>MOL_PROPERTY
G
SciTegic.value.DoubleValue
-4.750

@<SCITEGIC>MOL_PROPERTY
E
SciTegic.value.DoubleValue
-29.709

@<SCITEGIC>MOL_PROPERTY
-TS
SciTegic.value.DoubleValue
24.959

@<SCITEGIC>MOL_PROPERTY
U+W
SciTegic.value.DoubleValue
-50.277

@<SCITEGIC>MOL_PROPERTY
U
SciTegic.value.DoubleValue
9.318

@<SCITEGIC>MOL_PROPERTY
W
SciTegic.value.DoubleValue
-59.595

@<SCITEGIC>MOL_PROPERTY
W(PB)
SciTegic.value.DoubleValue
-62.049

@<SCITEGIC>MOL_PROPERTY
W(SA)
SciTegic.value.DoubleValue
2.454

@<SCITEGIC>MOL_PROPERTY
Valence
SciTegic.value.DoubleValue
8.828

@<SCITEGIC>MOL_PROPERTY
Coulomb
SciTegic.value.DoubleValue
-0.523

@<SCITEGIC>MOL_PROPERTY
VdW
SciTegic.value.DoubleValue
1.014

@<SCITEGIC>MOL_PROPERTY
VdW6
SciTegic.value.DoubleValue
-9.806

@<SCITEGIC>MOL_PROPERTY
VdW12
SciTegic.value.DoubleValue
10.819

@<SCITEGIC>MOL_PROPERTY
Bond
SciTegic.value.DoubleValue
0.208

@<SCITEGIC>MOL_PROPERTY
Angle
SciTegic.value.DoubleValue
2.883

@<SCITEGIC>MOL_PROPERTY
Pdih
SciTegic.value.DoubleValue
5.736

@<SCITEGIC>MOL_PROPERTY
Idih
SciTegic.value.DoubleValue
0.001

@<SCITEGIC>MOL_PROPERTY
Tether
SciTegic.value.DoubleValue
0.000

@<TRIPOS>MOLECULE
guest-8_vm2.mol2 : vm2 ligand conformer 57
          25          24           1
SMALL
USER_CHARGES
 
@<TRIPOS>ATOM
       1    C1      20.129880   19.613255   27.178465 C.2        1 MOL1         0.6168
       2    O1      21.243617   20.017253   27.449460 O.co2      1 MOL1        -0.6703
       3    O2      19.115996   20.255118   27.371209 O.co2      1 MOL1        -0.6703
       4    C2      19.992963   18.215110   26.582311 C.3        1 MOL1        -0.1963
       5    H1      19.174572   17.711681   27.110303 H          1 MOL1         0.0750
       6    H2      20.907037   17.650135   26.801508 H          1 MOL1         0.0750
       7    C3      19.709056   18.206283   25.057745 C.3        1 MOL1        -0.1860
       8    H3      19.497455   17.176367   24.740334 H          1 MOL1         0.0752
       9    H4      18.801232   18.792070   24.862720 H          1 MOL1         0.0752
      10    C4      20.894162   18.762269   24.232119 C.3        1 MOL1        -0.1858
      11    H5      21.808265   18.222261   24.514341 H          1 MOL1         0.0752
      12    H6      21.066766   19.816551   24.489021 H          1 MOL1         0.0752
      13    C5      20.699610   18.629590   22.702665 C.3        1 MOL1        -0.1858
      14    H7      21.641935   18.911059   22.215858 H          1 MOL1         0.0752
      15    H8      20.517709   17.577565   22.444447 H          1 MOL1         0.0752
      16    C6      19.552352   19.510143   22.148619 C.3        1 MOL1        -0.1858
      17    H9      19.732834   20.561591   22.410468 H          1 MOL1         0.0752
      18    H10     18.608498   19.226613   22.631128 H          1 MOL1         0.0752
      19    C7      19.364019   19.382888   20.618660 C.3        1 MOL1        -0.1834
      20    H11     19.194859   18.330544   20.351741 H          1 MOL1         0.0752
      21    H12     18.453234   19.925792   20.330618 H          1 MOL1         0.0752
      22    C8      20.551346   19.942091   19.804746 C.3        1 MOL1        -0.2849
      23    H13     21.462335   19.352660   19.966225 H          1 MOL1         0.0764
      24    H14     20.326015   19.916014   18.730760 H          1 MOL1         0.0764
      25    H15     20.760949   20.983774   20.080565 H          1 MOL1         0.0764
@<TRIPOS>BOND
    1     1     2    1
    2     1     3    2
    3     1     4    1
    4     4     5    1
    5     4     6    1
    6     4     7    1
    7     7     8    1
    8     7     9    1
    9     7    10    1
   10    10    11    1
   11    10    12    1
   12    10    13    1
   13    13    14    1
   14    13    15    1
   15    13    16    1
   16    16    17    1
   17    16    18    1
   18    16    19    1
   19    19    20    1
   20    19    21    1
   21    19    22    1
   22    22    23    1
   23    22    24    1
   24    22    25    1
@<TRIPOS>SUBSTRUCTURE
       1 MOL1            1 RESIDUE      1      MOL     
@<SCITEGIC>MOL_PROPERTY
VM2 Rank
SciTegic.value.IntegerValue
57

@<SCITEGIC>MOL_PROPERTY
Conf_Id
SciTegic.value.IntegerValue
437

@<SCITEGIC>MOL_PROPERTY
Probability
SciTegic.value.DoubleValue
0.11

@<SCITEGIC>MOL_PROPERTY
Sum Probability
SciTegic.value.DoubleValue
97.65

@<SCITEGIC>MOL_PROPERTY
Delta G
SciTegic.value.DoubleValue
3.220

@<SCITEGIC>MOL_PROPERTY
G
SciTegic.value.DoubleValue
-4.743

@<SCITEGIC>MOL_PROPERTY
E
SciTegic.value.DoubleValue
-29.611

@<SCITEGIC>MOL_PROPERTY
-TS
SciTegic.value.DoubleValue
24.868

@<SCITEGIC>MOL_PROPERTY
U+W
SciTegic.value.DoubleValue
-50.179

@<SCITEGIC>MOL_PROPERTY
U
SciTegic.value.DoubleValue
9.764

@<SCITEGIC>MOL_PROPERTY
W
SciTegic.value.DoubleValue
-59.942

@<SCITEGIC>MOL_PROPERTY
W(PB)
SciTegic.value.DoubleValue
-62.393

@<SCITEGIC>MOL_PROPERTY
W(SA)
SciTegic.value.DoubleValue
2.450

@<SCITEGIC>MOL_PROPERTY
Valence
SciTegic.value.DoubleValue
8.883

@<SCITEGIC>MOL_PROPERTY
Coulomb
SciTegic.value.DoubleValue
-0.122

@<SCITEGIC>MOL_PROPERTY
VdW
SciTegic.value.DoubleValue
1.003

@<SCITEGIC>MOL_PROPERTY
VdW6
SciTegic.value.DoubleValue
-9.782

@<SCITEGIC>MOL_PROPERTY
VdW12
SciTegic.value.DoubleValue
10.785

@<SCITEGIC>MOL_PROPERTY
Bond
SciTegic.value.DoubleValue
0.212

@<SCITEGIC>MOL_PROPERTY
Angle
SciTegic.value.DoubleValue
2.940

@<SCITEGIC>MOL_PROPERTY
Pdih
SciTegic.value.DoubleValue
5.730

@<SCITEGIC>MOL_PROPERTY
Idih
SciTegic.value.DoubleValue
0.001

@<SCITEGIC>MOL_PROPERTY
Tether
SciTegic.value.DoubleValue
0.000

@<TRIPOS>MOLECULE
guest-8_vm2.mol2 : vm2 ligand conformer 58
          25          24           1
SMALL
USER_CHARGES
 
@<TRIPOS>ATOM
       1    C1      20.030377   19.411365   27.316379 C.2        1 MOL1         0.6168
       2    O1      21.073592   19.895102   27.709777 O.co2      1 MOL1        -0.6703
       3    O2      18.933789   19.827980   27.634245 O.co2      1 MOL1        -0.6703
       4    C2      20.098620   18.202670   26.387113 C.3        1 MOL1        -0.1963
       5    H1      19.380618   17.462760   26.759896 H          1 MOL1         0.0750
       6    H2      21.094045   17.750344   26.472822 H          1 MOL1         0.0750
       7    C3      19.783915   18.527398   24.903537 C.3        1 MOL1        -0.1860
       8    H3      19.705667   17.583151   24.349821 H          1 MOL1         0.0752
       9    H4      18.801868   19.016016   24.838278 H          1 MOL1         0.0752
      10    C4      20.861439   19.426196   24.250595 C.3        1 MOL1        -0.1858
      11    H5      21.835112   18.918410   24.280028 H          1 MOL1         0.0752
      12    H6      20.973785   20.344245   24.843493 H          1 MOL1         0.0752
      13    C5      20.528371   19.825806   22.793384 C.3        1 MOL1        -0.1858
      14    H7      19.560603   20.343862   22.773947 H          1 MOL1         0.0752
      15    H8      21.278204   20.552060   22.451535 H          1 MOL1         0.0752
      16    C6      20.507508   18.625708   21.815118 C.3        1 MOL1        -0.1858
      17    H9      19.678643   17.950531   22.064427 H          1 MOL1         0.0752
      18    H10     21.432200   18.045971   21.939516 H          1 MOL1         0.0752
      19    C7      20.387074   19.048059   20.332330 C.3        1 MOL1        -0.1834
      20    H11     21.222636   19.709884   20.065696 H          1 MOL1         0.0752
      21    H12     20.486197   18.153953   19.701497 H          1 MOL1         0.0752
      22    C8      19.048316   19.743716   20.003523 C.3        1 MOL1        -0.2849
      23    H13     18.975575   19.947692   18.927429 H          1 MOL1         0.0764
      24    H14     18.197012   19.110812   20.286065 H          1 MOL1         0.0764
      25    H15     18.955136   20.701590   20.530422 H          1 MOL1         0.0764
@<TRIPOS>BOND
    1     1     2    1
    2     1     3    2
    3     1     4    1
    4     4     5    1
    5     4     6    1
    6     4     7    1
    7     7     8    1
    8     7     9    1
    9     7    10    1
   10    10    11    1
   11    10    12    1
   12    10    13    1
   13    13    14    1
   14    13    15    1
   15    13    16    1
   16    16    17    1
   17    16    18    1
   18    16    19    1
   19    19    20    1
   20    19    21    1
   21    19    22    1
   22    22    23    1
   23    22    24    1
   24    22    25    1
@<TRIPOS>SUBSTRUCTURE
       1 MOL1            1 RESIDUE      1      MOL     
@<SCITEGIC>MOL_PROPERTY
VM2 Rank
SciTegic.value.IntegerValue
58

@<SCITEGIC>MOL_PROPERTY
Conf_Id
SciTegic.value.IntegerValue
782

@<SCITEGIC>MOL_PROPERTY
Probability
SciTegic.value.DoubleValue
0.11

@<SCITEGIC>MOL_PROPERTY
Sum Probability
SciTegic.value.DoubleValue
97.76

@<SCITEGIC>MOL_PROPERTY
Delta G
SciTegic.value.DoubleValue
3.222

@<SCITEGIC>MOL_PROPERTY
G
SciTegic.value.DoubleValue
-4.740

@<SCITEGIC>MOL_PROPERTY
E
SciTegic.value.DoubleValue
-29.699

@<SCITEGIC>MOL_PROPERTY
-TS
SciTegic.value.DoubleValue
24.958

@<SCITEGIC>MOL_PROPERTY
U+W
SciTegic.value.DoubleValue
-50.266

@<SCITEGIC>MOL_PROPERTY
U
SciTegic.value.DoubleValue
9.318

@<SCITEGIC>MOL_PROPERTY
W
SciTegic.value.DoubleValue
-59.584

@<SCITEGIC>MOL_PROPERTY
W(PB)
SciTegic.value.DoubleValue
-62.042

@<SCITEGIC>MOL_PROPERTY
W(SA)
SciTegic.value.DoubleValue
2.458

@<SCITEGIC>MOL_PROPERTY
Valence
SciTegic.value.DoubleValue
8.828

@<SCITEGIC>MOL_PROPERTY
Coulomb
SciTegic.value.DoubleValue
-0.524

@<SCITEGIC>MOL_PROPERTY
VdW
SciTegic.value.DoubleValue
1.014

@<SCITEGIC>MOL_PROPERTY
VdW6
SciTegic.value.DoubleValue
-9.805

@<SCITEGIC>MOL_PROPERTY
VdW12
SciTegic.value.DoubleValue
10.819

@<SCITEGIC>MOL_PROPERTY
Bond
SciTegic.value.DoubleValue
0.208

@<SCITEGIC>MOL_PROPERTY
Angle
SciTegic.value.DoubleValue
2.883

@<SCITEGIC>MOL_PROPERTY
Pdih
SciTegic.value.DoubleValue
5.736

@<SCITEGIC>MOL_PROPERTY
Idih
SciTegic.value.DoubleValue
0.000

@<SCITEGIC>MOL_PROPERTY
Tether
SciTegic.value.DoubleValue
0.000

@<TRIPOS>MOLECULE
guest-8_vm2.mol2 : vm2 ligand conformer 59
          25          24           1
SMALL
USER_CHARGES
 
@<TRIPOS>ATOM
       1    C1      20.088765   19.418119   27.359796 C.2        1 MOL1         0.6168
       2    O1      20.978215   20.134533   27.775416 O.co2      1 MOL1        -0.6703
       3    O2      18.916856   19.566244   27.645696 O.co2      1 MOL1        -0.6703
       4    C2      20.468762   18.258235   26.443578 C.3        1 MOL1        -0.1963
       5    H1      19.647043   17.531889   26.438318 H          1 MOL1         0.0750
       6    H2      21.333273   17.756103   26.893526 H          1 MOL1         0.0750
       7    C3      20.815313   18.685216   24.993318 C.3        1 MOL1        -0.1860
       8    H3      21.610852   19.442796   25.017562 H          1 MOL1         0.0752
       9    H4      21.222254   17.814698   24.463789 H          1 MOL1         0.0752
      10    C4      19.588395   19.236797   24.227564 C.3        1 MOL1        -0.1858
      11    H5      19.151508   20.066718   24.799698 H          1 MOL1         0.0752
      12    H6      18.811284   18.462922   24.164382 H          1 MOL1         0.0752
      13    C5      19.924323   19.751846   22.807408 C.3        1 MOL1        -0.1858
      14    H7      19.034989   20.259393   22.412880 H          1 MOL1         0.0752
      15    H8      20.714700   20.512130   22.869449 H          1 MOL1         0.0752
      16    C6      20.351892   18.630968   21.827789 C.3        1 MOL1        -0.1858
      17    H9      19.563343   17.868422   21.770095 H          1 MOL1         0.0752
      18    H10     21.245520   18.126711   22.216410 H          1 MOL1         0.0752
      19    C7      20.676067   19.148056   20.406515 C.3        1 MOL1        -0.1834
      20    H11     21.455830   19.920239   20.461322 H          1 MOL1         0.0752
      21    H12     21.099768   18.321074   19.820150 H          1 MOL1         0.0752
      22    C8      19.444411   19.703986   19.658920 C.3        1 MOL1        -0.2849
      23    H13     19.056392   20.609587   20.141342 H          1 MOL1         0.0764
      24    H14     19.708901   19.966230   18.626360 H          1 MOL1         0.0764
      25    H15     18.638034   18.959992   19.622322 H          1 MOL1         0.0764
@<TRIPOS>BOND
    1     1     2    1
    2     1     3    2
    3     1     4    1
    4     4     5    1
    5     4     6    1
    6     4     7    1
    7     7     8    1
    8     7     9    1
    9     7    10    1
   10    10    11    1
   11    10    12    1
   12    10    13    1
   13    13    14    1
   14    13    15    1
   15    13    16    1
   16    16    17    1
   17    16    18    1
   18    16    19    1
   19    19    20    1
   20    19    21    1
   21    19    22    1
   22    22    23    1
   23    22    24    1
   24    22    25    1
@<TRIPOS>SUBSTRUCTURE
       1 MOL1            1 RESIDUE      1      MOL     
@<SCITEGIC>MOL_PROPERTY
VM2 Rank
SciTegic.value.IntegerValue
59

@<SCITEGIC>MOL_PROPERTY
Conf_Id
SciTegic.value.IntegerValue
894

@<SCITEGIC>MOL_PROPERTY
Probability
SciTegic.value.DoubleValue
0.10

@<SCITEGIC>MOL_PROPERTY
Sum Probability
SciTegic.value.DoubleValue
97.86

@<SCITEGIC>MOL_PROPERTY
Delta G
SciTegic.value.DoubleValue
3.259

@<SCITEGIC>MOL_PROPERTY
G
SciTegic.value.DoubleValue
-4.704

@<SCITEGIC>MOL_PROPERTY
E
SciTegic.value.DoubleValue
-29.575

@<SCITEGIC>MOL_PROPERTY
-TS
SciTegic.value.DoubleValue
24.871

@<SCITEGIC>MOL_PROPERTY
U+W
SciTegic.value.DoubleValue
-50.142

@<SCITEGIC>MOL_PROPERTY
U
SciTegic.value.DoubleValue
9.416

@<SCITEGIC>MOL_PROPERTY
W
SciTegic.value.DoubleValue
-59.559

@<SCITEGIC>MOL_PROPERTY
W(PB)
SciTegic.value.DoubleValue
-62.023

@<SCITEGIC>MOL_PROPERTY
W(SA)
SciTegic.value.DoubleValue
2.464

@<SCITEGIC>MOL_PROPERTY
Valence
SciTegic.value.DoubleValue
8.939

@<SCITEGIC>MOL_PROPERTY
Coulomb
SciTegic.value.DoubleValue
-0.615

@<SCITEGIC>MOL_PROPERTY
VdW
SciTegic.value.DoubleValue
1.091

@<SCITEGIC>MOL_PROPERTY
VdW6
SciTegic.value.DoubleValue
-9.710

@<SCITEGIC>MOL_PROPERTY
VdW12
SciTegic.value.DoubleValue
10.802

@<SCITEGIC>MOL_PROPERTY
Bond
SciTegic.value.DoubleValue
0.216

@<SCITEGIC>MOL_PROPERTY
Angle
SciTegic.value.DoubleValue
2.980

@<SCITEGIC>MOL_PROPERTY
Pdih
SciTegic.value.DoubleValue
5.743

@<SCITEGIC>MOL_PROPERTY
Idih
SciTegic.value.DoubleValue
0.000

@<SCITEGIC>MOL_PROPERTY
Tether
SciTegic.value.DoubleValue
0.000

@<TRIPOS>MOLECULE
guest-8_vm2.mol2 : vm2 ligand conformer 60
          25          24           1
SMALL
USER_CHARGES
 
@<TRIPOS>ATOM
       1    C1      19.999607   19.010704   27.188157 C.2        1 MOL1         0.6168
       2    O1      20.848800   18.191171   27.478499 O.co2      1 MOL1        -0.6703
       3    O2      18.812397   18.850922   27.393341 O.co2      1 MOL1        -0.6703
       4    C2      20.448451   20.321763   26.548923 C.3        1 MOL1        -0.1963
       5    H1      21.515679   20.465148   26.756866 H          1 MOL1         0.0750
       6    H2      19.914529   21.134031   27.056000 H          1 MOL1         0.0750
       7    C3      20.183542   20.400770   25.022960 C.3        1 MOL1        -0.1860
       8    H3      19.113558   20.236657   24.839857 H          1 MOL1         0.0752
       9    H4      20.414178   21.415964   24.673048 H          1 MOL1         0.0752
      10    C4      21.027699   19.380124   24.222377 C.3        1 MOL1        -0.1858
      11    H5      20.750955   18.357023   24.512168 H          1 MOL1         0.0752
      12    H6      22.085050   19.502489   24.494187 H          1 MOL1         0.0752
      13    C5      20.895448   19.535003   22.688360 C.3        1 MOL1        -0.1858
      14    H7      21.162822   20.559846   22.397277 H          1 MOL1         0.0752
      15    H8      21.634090   18.874742   22.216503 H          1 MOL1         0.0752
      16    C6      19.483296   19.190866   22.153627 C.3        1 MOL1        -0.1858
      17    H9      18.744081   19.853453   22.621177 H          1 MOL1         0.0752
      18    H10     19.214923   18.167219   22.448251 H          1 MOL1         0.0752
      19    C7      19.354402   19.338341   20.619329 C.3        1 MOL1        -0.1834
      20    H11     18.298837   19.211747   20.341847 H          1 MOL1         0.0752
      21    H12     19.633327   20.358002   20.319697 H          1 MOL1         0.0752
      22    C8      20.199358   18.314336   19.830428 C.3        1 MOL1        -0.2849
      23    H13     19.961717   17.287944   20.138907 H          1 MOL1         0.0764
      24    H14     19.997937   18.398756   18.754693 H          1 MOL1         0.0764
      25    H15     21.273507   18.479376   19.980005 H          1 MOL1         0.0764
@<TRIPOS>BOND
    1     1     2    1
    2     1     3    2
    3     1     4    1
    4     4     5    1
    5     4     6    1
    6     4     7    1
    7     7     8    1
    8     7     9    1
    9     7    10    1
   10    10    11    1
   11    10    12    1
   12    10    13    1
   13    13    14    1
   14    13    15    1
   15    13    16    1
   16    16    17    1
   17    16    18    1
   18    16    19    1
   19    19    20    1
   20    19    21    1
   21    19    22    1
   22    22    23    1
   23    22    24    1
   24    22    25    1
@<TRIPOS>SUBSTRUCTURE
       1 MOL1            1 RESIDUE      1      MOL     
@<SCITEGIC>MOL_PROPERTY
VM2 Rank
SciTegic.value.IntegerValue
60

@<SCITEGIC>MOL_PROPERTY
Conf_Id
SciTegic.value.IntegerValue
222

@<SCITEGIC>MOL_PROPERTY
Probability
SciTegic.value.DoubleValue
0.09

@<SCITEGIC>MOL_PROPERTY
Sum Probability
SciTegic.value.DoubleValue
97.95

@<SCITEGIC>MOL_PROPERTY
Delta G
SciTegic.value.DoubleValue
3.287

@<SCITEGIC>MOL_PROPERTY
G
SciTegic.value.DoubleValue
-4.675

@<SCITEGIC>MOL_PROPERTY
E
SciTegic.value.DoubleValue
-29.543

@<SCITEGIC>MOL_PROPERTY
-TS
SciTegic.value.DoubleValue
24.868

@<SCITEGIC>MOL_PROPERTY
U+W
SciTegic.value.DoubleValue
-50.111

@<SCITEGIC>MOL_PROPERTY
U
SciTegic.value.DoubleValue
9.764

@<SCITEGIC>MOL_PROPERTY
W
SciTegic.value.DoubleValue
-59.875

@<SCITEGIC>MOL_PROPERTY
W(PB)
SciTegic.value.DoubleValue
-62.332

@<SCITEGIC>MOL_PROPERTY
W(SA)
SciTegic.value.DoubleValue
2.457

@<SCITEGIC>MOL_PROPERTY
Valence
SciTegic.value.DoubleValue
8.882

@<SCITEGIC>MOL_PROPERTY
Coulomb
SciTegic.value.DoubleValue
-0.121

@<SCITEGIC>MOL_PROPERTY
VdW
SciTegic.value.DoubleValue
1.003

@<SCITEGIC>MOL_PROPERTY
VdW6
SciTegic.value.DoubleValue
-9.782

@<SCITEGIC>MOL_PROPERTY
VdW12
SciTegic.value.DoubleValue
10.785

@<SCITEGIC>MOL_PROPERTY
Bond
SciTegic.value.DoubleValue
0.212

@<SCITEGIC>MOL_PROPERTY
Angle
SciTegic.value.DoubleValue
2.941

@<SCITEGIC>MOL_PROPERTY
Pdih
SciTegic.value.DoubleValue
5.730

@<SCITEGIC>MOL_PROPERTY
Idih
SciTegic.value.DoubleValue
0.001

@<SCITEGIC>MOL_PROPERTY
Tether
SciTegic.value.DoubleValue
0.000

@<TRIPOS>MOLECULE
guest-8_vm2.mol2 : vm2 ligand conformer 61
          25          24           1
SMALL
USER_CHARGES
 
@<TRIPOS>ATOM
       1    C1      19.853526   19.407180   27.102384 C.2        1 MOL1         0.6168
       2    O1      20.735564   19.875470   27.795114 O.co2      1 MOL1        -0.6703
       3    O2      18.745245   19.895882   27.003030 O.co2      1 MOL1        -0.6703
       4    C2      20.149678   18.123300   26.332328 C.3        1 MOL1        -0.1963
       5    H1      19.197984   17.657852   26.048641 H          1 MOL1         0.0750
       6    H2      20.646847   17.433275   27.024152 H          1 MOL1         0.0750
       7    C3      21.038976   18.330710   25.078878 C.3        1 MOL1        -0.1860
       8    H3      21.976665   18.821148   25.375156 H          1 MOL1         0.0752
       9    H4      21.311369   17.348904   24.668548 H          1 MOL1         0.0752
      10    C4      20.336032   19.162696   23.982713 C.3        1 MOL1        -0.1858
      11    H5      20.080139   20.155456   24.377658 H          1 MOL1         0.0752
      12    H6      19.391769   18.673351   23.710552 H          1 MOL1         0.0752
      13    C5      21.225776   19.321850   22.728396 C.3        1 MOL1        -0.1858
      14    H7      22.194844   19.742026   23.030087 H          1 MOL1         0.0752
      15    H8      21.442663   18.334937   22.299208 H          1 MOL1         0.0752
      16    C6      20.610422   20.245286   21.646779 C.3        1 MOL1        -0.1858
      17    H9      21.326490   20.344273   20.819681 H          1 MOL1         0.0752
      18    H10     20.491249   21.253444   22.066462 H          1 MOL1         0.0752
      19    C7      19.248263   19.779681   21.075245 C.3        1 MOL1        -0.1834
      20    H11     18.487300   19.773816   21.866820 H          1 MOL1         0.0752
      21    H12     18.909480   20.517357   20.334915 H          1 MOL1         0.0752
      22    C8      19.309516   18.391945   20.401134 C.3        1 MOL1        -0.2849
      23    H13     19.532169   17.603791   21.131406 H          1 MOL1         0.0764
      24    H14     18.346815   18.149255   19.933083 H          1 MOL1         0.0764
      25    H15     20.081290   18.367755   19.620911 H          1 MOL1         0.0764
@<TRIPOS>BOND
    1     1     2    1
    2     1     3    2
    3     1     4    1
    4     4     5    1
    5     4     6    1
    6     4     7    1
    7     7     8    1
    8     7     9    1
    9     7    10    1
   10    10    11    1
   11    10    12    1
   12    10    13    1
   13    13    14    1
   14    13    15    1
   15    13    16    1
   16    16    17    1
   17    16    18    1
   18    16    19    1
   19    19    20    1
   20    19    21    1
   21    19    22    1
   22    22    23    1
   23    22    24    1
   24    22    25    1
@<TRIPOS>SUBSTRUCTURE
       1 MOL1            1 RESIDUE      1      MOL     
@<SCITEGIC>MOL_PROPERTY
VM2 Rank
SciTegic.value.IntegerValue
61

@<SCITEGIC>MOL_PROPERTY
Conf_Id
SciTegic.value.IntegerValue
244

@<SCITEGIC>MOL_PROPERTY
Probability
SciTegic.value.DoubleValue
0.09

@<SCITEGIC>MOL_PROPERTY
Sum Probability
SciTegic.value.DoubleValue
98.05

@<SCITEGIC>MOL_PROPERTY
Delta G
SciTegic.value.DoubleValue
3.298

@<SCITEGIC>MOL_PROPERTY
G
SciTegic.value.DoubleValue
-4.665

@<SCITEGIC>MOL_PROPERTY
E
SciTegic.value.DoubleValue
-29.775

@<SCITEGIC>MOL_PROPERTY
-TS
SciTegic.value.DoubleValue
25.111

@<SCITEGIC>MOL_PROPERTY
U+W
SciTegic.value.DoubleValue
-50.343

@<SCITEGIC>MOL_PROPERTY
U
SciTegic.value.DoubleValue
9.795

@<SCITEGIC>MOL_PROPERTY
W
SciTegic.value.DoubleValue
-60.138

@<SCITEGIC>MOL_PROPERTY
W(PB)
SciTegic.value.DoubleValue
-62.575

@<SCITEGIC>MOL_PROPERTY
W(SA)
SciTegic.value.DoubleValue
2.436

@<SCITEGIC>MOL_PROPERTY
Valence
SciTegic.value.DoubleValue
8.739

@<SCITEGIC>MOL_PROPERTY
Coulomb
SciTegic.value.DoubleValue
0.241

@<SCITEGIC>MOL_PROPERTY
VdW
SciTegic.value.DoubleValue
0.816

@<SCITEGIC>MOL_PROPERTY
VdW6
SciTegic.value.DoubleValue
-10.096

@<SCITEGIC>MOL_PROPERTY
VdW12
SciTegic.value.DoubleValue
10.911

@<SCITEGIC>MOL_PROPERTY
Bond
SciTegic.value.DoubleValue
0.210

@<SCITEGIC>MOL_PROPERTY
Angle
SciTegic.value.DoubleValue
3.062

@<SCITEGIC>MOL_PROPERTY
Pdih
SciTegic.value.DoubleValue
5.466

@<SCITEGIC>MOL_PROPERTY
Idih
SciTegic.value.DoubleValue
0.001

@<SCITEGIC>MOL_PROPERTY
Tether
SciTegic.value.DoubleValue
0.000

@<TRIPOS>MOLECULE
guest-8_vm2.mol2 : vm2 ligand conformer 62
          25          24           1
SMALL
USER_CHARGES
 
@<TRIPOS>ATOM
       1    C1      20.210621   19.425968   27.358385 C.2        1 MOL1         0.6168
       2    O1      21.360430   19.722307   27.617565 O.co2      1 MOL1        -0.6703
       3    O2      19.247068   20.024128   27.795281 O.co2      1 MOL1        -0.6703
       4    C2      19.960280   18.225789   26.449493 C.3        1 MOL1        -0.1963
       5    H1      19.177202   17.618485   26.918469 H          1 MOL1         0.0750
       6    H2      20.867357   17.609829   26.424337 H          1 MOL1         0.0750
       7    C3      19.529033   18.603024   25.008180 C.3        1 MOL1        -0.1860
       8    H3      19.224001   17.687026   24.486926 H          1 MOL1         0.0752
       9    H4      18.644406   19.253361   25.051766 H          1 MOL1         0.0752
      10    C4      20.657950   19.304918   24.215187 C.3        1 MOL1        -0.1858
      11    H5      21.525431   18.635967   24.132957 H          1 MOL1         0.0752
      12    H6      20.998910   20.184458   24.778333 H          1 MOL1         0.0752
      13    C5      20.226643   19.771033   22.803921 C.3        1 MOL1        -0.1858
      14    H7      19.347635   20.424717   22.885284 H          1 MOL1         0.0752
      15    H8      21.034888   20.386988   22.389784 H          1 MOL1         0.0752
      16    C6      19.922653   18.603472   21.832724 C.3        1 MOL1        -0.1858
      17    H9      19.109689   17.990140   22.241119 H          1 MOL1         0.0752
      18    H10     20.800286   17.947396   21.755651 H          1 MOL1         0.0752
      19    C7      19.502540   19.073084   20.420117 C.3        1 MOL1        -0.1834
      20    H11     19.174152   18.198066   19.842407 H          1 MOL1         0.0752
      21    H12     18.632281   19.739772   20.494112 H          1 MOL1         0.0752
      22    C8      20.635781   19.780276   19.645147 C.3        1 MOL1        -0.2849
      23    H13     21.529282   19.144987   19.588805 H          1 MOL1         0.0764
      24    H14     20.316279   20.005238   18.619372 H          1 MOL1         0.0764
      25    H15     20.916341   20.728602   20.119873 H          1 MOL1         0.0764
@<TRIPOS>BOND
    1     1     2    1
    2     1     3    2
    3     1     4    1
    4     4     5    1
    5     4     6    1
    6     4     7    1
    7     7     8    1
    8     7     9    1
    9     7    10    1
   10    10    11    1
   11    10    12    1
   12    10    13    1
   13    13    14    1
   14    13    15    1
   15    13    16    1
   16    16    17    1
   17    16    18    1
   18    16    19    1
   19    19    20    1
   20    19    21    1
   21    19    22    1
   22    22    23    1
   23    22    24    1
   24    22    25    1
@<TRIPOS>SUBSTRUCTURE
       1 MOL1            1 RESIDUE      1      MOL     
@<SCITEGIC>MOL_PROPERTY
VM2 Rank
SciTegic.value.IntegerValue
62

@<SCITEGIC>MOL_PROPERTY
Conf_Id
SciTegic.value.IntegerValue
308

@<SCITEGIC>MOL_PROPERTY
Probability
SciTegic.value.DoubleValue
0.09

@<SCITEGIC>MOL_PROPERTY
Sum Probability
SciTegic.value.DoubleValue
98.14

@<SCITEGIC>MOL_PROPERTY
Delta G
SciTegic.value.DoubleValue
3.305

@<SCITEGIC>MOL_PROPERTY
G
SciTegic.value.DoubleValue
-4.657

@<SCITEGIC>MOL_PROPERTY
E
SciTegic.value.DoubleValue
-29.528

@<SCITEGIC>MOL_PROPERTY
-TS
SciTegic.value.DoubleValue
24.871

@<SCITEGIC>MOL_PROPERTY
U+W
SciTegic.value.DoubleValue
-50.096

@<SCITEGIC>MOL_PROPERTY
U
SciTegic.value.DoubleValue
9.416

@<SCITEGIC>MOL_PROPERTY
W
SciTegic.value.DoubleValue
-59.512

@<SCITEGIC>MOL_PROPERTY
W(PB)
SciTegic.value.DoubleValue
-61.988

@<SCITEGIC>MOL_PROPERTY
W(SA)
SciTegic.value.DoubleValue
2.476

@<SCITEGIC>MOL_PROPERTY
Valence
SciTegic.value.DoubleValue
8.939

@<SCITEGIC>MOL_PROPERTY
Coulomb
SciTegic.value.DoubleValue
-0.615

@<SCITEGIC>MOL_PROPERTY
VdW
SciTegic.value.DoubleValue
1.091

@<SCITEGIC>MOL_PROPERTY
VdW6
SciTegic.value.DoubleValue
-9.710

@<SCITEGIC>MOL_PROPERTY
VdW12
SciTegic.value.DoubleValue
10.802

@<SCITEGIC>MOL_PROPERTY
Bond
SciTegic.value.DoubleValue
0.216

@<SCITEGIC>MOL_PROPERTY
Angle
SciTegic.value.DoubleValue
2.980

@<SCITEGIC>MOL_PROPERTY
Pdih
SciTegic.value.DoubleValue
5.743

@<SCITEGIC>MOL_PROPERTY
Idih
SciTegic.value.DoubleValue
0.000

@<SCITEGIC>MOL_PROPERTY
Tether
SciTegic.value.DoubleValue
0.000

@<TRIPOS>MOLECULE
guest-8_vm2.mol2 : vm2 ligand conformer 63
          25          24           1
SMALL
USER_CHARGES
 
@<TRIPOS>ATOM
       1    C1      20.186540   19.826453   26.866197 C.2        1 MOL1         0.6168
       2    O1      21.223923   20.450231   26.757937 O.co2      1 MOL1        -0.6703
       3    O2      19.132814   20.327022   27.207136 O.co2      1 MOL1        -0.6703
       4    C2      20.211097   18.327215   26.581709 C.3        1 MOL1        -0.1963
       5    H1      19.674810   17.829884   27.398405 H          1 MOL1         0.0750
       6    H2      21.250289   17.979429   26.625847 H          1 MOL1         0.0750
       7    C3      19.571311   17.932021   25.225428 C.3        1 MOL1        -0.1860
       8    H3      19.506624   16.837069   25.167713 H          1 MOL1         0.0752
       9    H4      18.541199   18.312554   25.184175 H          1 MOL1         0.0752
      10    C4      20.372331   18.460371   24.014165 C.3        1 MOL1        -0.1858
      11    H5      21.403643   18.085470   24.063559 H          1 MOL1         0.0752
      12    H6      20.426956   19.555762   24.066112 H          1 MOL1         0.0752
      13    C5      19.729730   18.032877   22.674522 C.3        1 MOL1        -0.1858
      14    H7      19.613780   16.940590   22.666740 H          1 MOL1         0.0752
      15    H8      18.715534   18.446775   22.601159 H          1 MOL1         0.0752
      16    C6      20.559573   18.442865   21.431690 C.3        1 MOL1        -0.1858
      17    H9      20.060822   18.056400   20.532505 H          1 MOL1         0.0752
      18    H10     21.536095   17.941693   21.475352 H          1 MOL1         0.0752
      19    C7      20.788319   19.965165   21.260589 C.3        1 MOL1        -0.1834
      20    H11     21.378740   20.356406   22.099713 H          1 MOL1         0.0752
      21    H12     21.396458   20.128132   20.360244 H          1 MOL1         0.0752
      22    C8      19.477362   20.769781   21.126626 C.3        1 MOL1        -0.2849
      23    H13     18.858440   20.379605   20.308304 H          1 MOL1         0.0764
      24    H14     18.889967   20.730887   22.052720 H          1 MOL1         0.0764
      25    H15     19.693950   21.824694   20.914492 H          1 MOL1         0.0764
@<TRIPOS>BOND
    1     1     2    1
    2     1     3    2
    3     1     4    1
    4     4     5    1
    5     4     6    1
    6     4     7    1
    7     7     8    1
    8     7     9    1
    9     7    10    1
   10    10    11    1
   11    10    12    1
   12    10    13    1
   13    13    14    1
   14    13    15    1
   15    13    16    1
   16    16    17    1
   17    16    18    1
   18    16    19    1
   19    19    20    1
   20    19    21    1
   21    19    22    1
   22    22    23    1
   23    22    24    1
   24    22    25    1
@<TRIPOS>SUBSTRUCTURE
       1 MOL1            1 RESIDUE      1      MOL     
@<SCITEGIC>MOL_PROPERTY
VM2 Rank
SciTegic.value.IntegerValue
63

@<SCITEGIC>MOL_PROPERTY
Conf_Id
SciTegic.value.IntegerValue
1116

@<SCITEGIC>MOL_PROPERTY
Probability
SciTegic.value.DoubleValue
0.09

@<SCITEGIC>MOL_PROPERTY
Sum Probability
SciTegic.value.DoubleValue
98.23

@<SCITEGIC>MOL_PROPERTY
Delta G
SciTegic.value.DoubleValue
3.340

@<SCITEGIC>MOL_PROPERTY
G
SciTegic.value.DoubleValue
-4.622

@<SCITEGIC>MOL_PROPERTY
E
SciTegic.value.DoubleValue
-29.747

@<SCITEGIC>MOL_PROPERTY
-TS
SciTegic.value.DoubleValue
25.125

@<SCITEGIC>MOL_PROPERTY
U+W
SciTegic.value.DoubleValue
-50.315

@<SCITEGIC>MOL_PROPERTY
U
SciTegic.value.DoubleValue
10.400

@<SCITEGIC>MOL_PROPERTY
W
SciTegic.value.DoubleValue
-60.715

@<SCITEGIC>MOL_PROPERTY
W(PB)
SciTegic.value.DoubleValue
-63.154

@<SCITEGIC>MOL_PROPERTY
W(SA)
SciTegic.value.DoubleValue
2.439

@<SCITEGIC>MOL_PROPERTY
Valence
SciTegic.value.DoubleValue
8.736

@<SCITEGIC>MOL_PROPERTY
Coulomb
SciTegic.value.DoubleValue
0.892

@<SCITEGIC>MOL_PROPERTY
VdW
SciTegic.value.DoubleValue
0.772

@<SCITEGIC>MOL_PROPERTY
VdW6
SciTegic.value.DoubleValue
-10.163

@<SCITEGIC>MOL_PROPERTY
VdW12
SciTegic.value.DoubleValue
10.935

@<SCITEGIC>MOL_PROPERTY
Bond
SciTegic.value.DoubleValue
0.210

@<SCITEGIC>MOL_PROPERTY
Angle
SciTegic.value.DoubleValue
3.058

@<SCITEGIC>MOL_PROPERTY
Pdih
SciTegic.value.DoubleValue
5.467

@<SCITEGIC>MOL_PROPERTY
Idih
SciTegic.value.DoubleValue
0.001

@<SCITEGIC>MOL_PROPERTY
Tether
SciTegic.value.DoubleValue
0.000

@<TRIPOS>MOLECULE
guest-8_vm2.mol2 : vm2 ligand conformer 64
          25          24           1
SMALL
USER_CHARGES
 
@<TRIPOS>ATOM
       1    C1      20.085186   19.533335   27.208056 C.2        1 MOL1         0.6168
       2    O1      21.037266   19.096506   27.824399 O.co2      1 MOL1        -0.6703
       3    O2      18.929456   19.342691   27.532141 O.co2      1 MOL1        -0.6703
       4    C2      20.358583   20.383720   25.970641 C.3        1 MOL1        -0.1963
       5    H1      21.144224   21.101516   26.234189 H          1 MOL1         0.0750
       6    H2      19.459118   20.967627   25.740816 H          1 MOL1         0.0750
       7    C3      20.799029   19.567824   24.727390 C.3        1 MOL1        -0.1860
       8    H3      21.116277   20.269917   23.945716 H          1 MOL1         0.0752
       9    H4      21.676794   18.958427   24.983199 H          1 MOL1         0.0752
      10    C4      19.670613   18.660042   24.182050 C.3        1 MOL1        -0.1858
      11    H5      18.807100   19.273686   23.894127 H          1 MOL1         0.0752
      12    H6      19.317306   18.001174   24.986961 H          1 MOL1         0.0752
      13    C5      20.111904   17.772764   22.990690 C.3        1 MOL1        -0.1858
      14    H7      20.903280   17.090973   23.330632 H          1 MOL1         0.0752
      15    H8      19.268056   17.133774   22.696978 H          1 MOL1         0.0752
      16    C6      20.617819   18.537640   21.741398 C.3        1 MOL1        -0.1858
      17    H9      20.907340   17.800776   20.979879 H          1 MOL1         0.0752
      18    H10     21.531565   19.094706   21.986049 H          1 MOL1         0.0752
      19    C7      19.567537   19.496518   21.136896 C.3        1 MOL1        -0.1834
      20    H11     18.637426   18.947680   20.935029 H          1 MOL1         0.0752
      21    H12     19.323113   20.289045   21.856531 H          1 MOL1         0.0752
      22    C8      20.075607   20.142959   19.832340 C.3        1 MOL1        -0.2849
      23    H13     19.320300   20.823447   19.418275 H          1 MOL1         0.0764
      24    H14     20.991139   20.721602   20.012098 H          1 MOL1         0.0764
      25    H15     20.295458   19.379454   19.074700 H          1 MOL1         0.0764
@<TRIPOS>BOND
    1     1     2    1
    2     1     3    2
    3     1     4    1
    4     4     5    1
    5     4     6    1
    6     4     7    1
    7     7     8    1
    8     7     9    1
    9     7    10    1
   10    10    11    1
   11    10    12    1
   12    10    13    1
   13    13    14    1
   14    13    15    1
   15    13    16    1
   16    16    17    1
   17    16    18    1
   18    16    19    1
   19    19    20    1
   20    19    21    1
   21    19    22    1
   22    22    23    1
   23    22    24    1
   24    22    25    1
@<TRIPOS>SUBSTRUCTURE
       1 MOL1            1 RESIDUE      1      MOL     
@<SCITEGIC>MOL_PROPERTY
VM2 Rank
SciTegic.value.IntegerValue
64

@<SCITEGIC>MOL_PROPERTY
Conf_Id
SciTegic.value.IntegerValue
282

@<SCITEGIC>MOL_PROPERTY
Probability
SciTegic.value.DoubleValue
0.08

@<SCITEGIC>MOL_PROPERTY
Sum Probability
SciTegic.value.DoubleValue
98.31

@<SCITEGIC>MOL_PROPERTY
Delta G
SciTegic.value.DoubleValue
3.359

@<SCITEGIC>MOL_PROPERTY
G
SciTegic.value.DoubleValue
-4.603

@<SCITEGIC>MOL_PROPERTY
E
SciTegic.value.DoubleValue
-29.754

@<SCITEGIC>MOL_PROPERTY
-TS
SciTegic.value.DoubleValue
25.151

@<SCITEGIC>MOL_PROPERTY
U+W
SciTegic.value.DoubleValue
-50.322

@<SCITEGIC>MOL_PROPERTY
U
SciTegic.value.DoubleValue
9.264

@<SCITEGIC>MOL_PROPERTY
W
SciTegic.value.DoubleValue
-59.585

@<SCITEGIC>MOL_PROPERTY
W(PB)
SciTegic.value.DoubleValue
-62.036

@<SCITEGIC>MOL_PROPERTY
W(SA)
SciTegic.value.DoubleValue
2.451

@<SCITEGIC>MOL_PROPERTY
Valence
SciTegic.value.DoubleValue
8.801

@<SCITEGIC>MOL_PROPERTY
Coulomb
SciTegic.value.DoubleValue
-0.375

@<SCITEGIC>MOL_PROPERTY
VdW
SciTegic.value.DoubleValue
0.837

@<SCITEGIC>MOL_PROPERTY
VdW6
SciTegic.value.DoubleValue
-10.171

@<SCITEGIC>MOL_PROPERTY
VdW12
SciTegic.value.DoubleValue
11.008

@<SCITEGIC>MOL_PROPERTY
Bond
SciTegic.value.DoubleValue
0.218

@<SCITEGIC>MOL_PROPERTY
Angle
SciTegic.value.DoubleValue
3.129

@<SCITEGIC>MOL_PROPERTY
Pdih
SciTegic.value.DoubleValue
5.454

@<SCITEGIC>MOL_PROPERTY
Idih
SciTegic.value.DoubleValue
0.001

@<SCITEGIC>MOL_PROPERTY
Tether
SciTegic.value.DoubleValue
0.000

@<TRIPOS>MOLECULE
guest-8_vm2.mol2 : vm2 ligand conformer 65
          25          24           1
SMALL
USER_CHARGES
 
@<TRIPOS>ATOM
       1    C1      20.050258   19.817722   26.867719 C.2        1 MOL1         0.6168
       2    O1      21.039105   20.449162   27.184914 O.co2      1 MOL1        -0.6703
       3    O2      18.939537   20.303873   26.784409 O.co2      1 MOL1        -0.6703
       4    C2      20.210625   18.327172   26.581715 C.3        1 MOL1        -0.1963
       5    H1      19.225596   17.849711   26.649343 H          1 MOL1         0.0750
       6    H2      20.824702   17.903572   27.385086 H          1 MOL1         0.0750
       7    C3      20.864106   18.014773   25.210447 C.3        1 MOL1        -0.1860
       8    H3      21.836051   18.523506   25.145980 H          1 MOL1         0.0752
       9    H4      21.066552   16.936925   25.149648 H          1 MOL1         0.0752
      10    C4      19.974498   18.434857   24.018780 C.3        1 MOL1        -0.1858
      11    H5      19.781882   19.514422   24.073567 H          1 MOL1         0.0752
      12    H6      19.000815   17.931608   24.091446 H          1 MOL1         0.0752
      13    C5      20.635224   18.090758   22.664023 C.3        1 MOL1        -0.1858
      14    H7      21.586481   18.630348   22.567895 H          1 MOL1         0.0752
      15    H8      20.889132   17.022123   22.651917 H          1 MOL1         0.0752
      16    C6      19.731454   18.389936   21.441299 C.3        1 MOL1        -0.1858
      17    H9      18.827944   17.768598   21.506767 H          1 MOL1         0.0752
      18    H10     20.254436   18.068782   20.530260 H          1 MOL1         0.0752
      19    C7      19.306888   19.870480   21.277781 C.3        1 MOL1        -0.1834
      20    H11     18.662401   19.953399   20.391908 H          1 MOL1         0.0752
      21    H12     18.690924   20.184582   22.130848 H          1 MOL1         0.0752
      22    C8      20.501304   20.835266   21.114912 C.3        1 MOL1        -0.2849
      23    H13     21.109992   20.872840   22.027206 H          1 MOL1         0.0764
      24    H14     21.145904   20.525869   20.282017 H          1 MOL1         0.0764
      25    H15     20.147350   21.853705   20.909365 H          1 MOL1         0.0764
@<TRIPOS>BOND
    1     1     2    1
    2     1     3    2
    3     1     4    1
    4     4     5    1
    5     4     6    1
    6     4     7    1
    7     7     8    1
    8     7     9    1
    9     7    10    1
   10    10    11    1
   11    10    12    1
   12    10    13    1
   13    13    14    1
   14    13    15    1
   15    13    16    1
   16    16    17    1
   17    16    18    1
   18    16    19    1
   19    19    20    1
   20    19    21    1
   21    19    22    1
   22    22    23    1
   23    22    24    1
   24    22    25    1
@<TRIPOS>SUBSTRUCTURE
       1 MOL1            1 RESIDUE      1      MOL     
@<SCITEGIC>MOL_PROPERTY
VM2 Rank
SciTegic.value.IntegerValue
65

@<SCITEGIC>MOL_PROPERTY
Conf_Id
SciTegic.value.IntegerValue
1008

@<SCITEGIC>MOL_PROPERTY
Probability
SciTegic.value.DoubleValue
0.08

@<SCITEGIC>MOL_PROPERTY
Sum Probability
SciTegic.value.DoubleValue
98.39

@<SCITEGIC>MOL_PROPERTY
Delta G
SciTegic.value.DoubleValue
3.369

@<SCITEGIC>MOL_PROPERTY
G
SciTegic.value.DoubleValue
-4.593

@<SCITEGIC>MOL_PROPERTY
E
SciTegic.value.DoubleValue
-29.718

@<SCITEGIC>MOL_PROPERTY
-TS
SciTegic.value.DoubleValue
25.124

@<SCITEGIC>MOL_PROPERTY
U+W
SciTegic.value.DoubleValue
-50.285

@<SCITEGIC>MOL_PROPERTY
U
SciTegic.value.DoubleValue
10.400

@<SCITEGIC>MOL_PROPERTY
W
SciTegic.value.DoubleValue
-60.686

@<SCITEGIC>MOL_PROPERTY
W(PB)
SciTegic.value.DoubleValue
-63.135

@<SCITEGIC>MOL_PROPERTY
W(SA)
SciTegic.value.DoubleValue
2.449

@<SCITEGIC>MOL_PROPERTY
Valence
SciTegic.value.DoubleValue
8.736

@<SCITEGIC>MOL_PROPERTY
Coulomb
SciTegic.value.DoubleValue
0.892

@<SCITEGIC>MOL_PROPERTY
VdW
SciTegic.value.DoubleValue
0.772

@<SCITEGIC>MOL_PROPERTY
VdW6
SciTegic.value.DoubleValue
-10.164

@<SCITEGIC>MOL_PROPERTY
VdW12
SciTegic.value.DoubleValue
10.936

@<SCITEGIC>MOL_PROPERTY
Bond
SciTegic.value.DoubleValue
0.210

@<SCITEGIC>MOL_PROPERTY
Angle
SciTegic.value.DoubleValue
3.058

@<SCITEGIC>MOL_PROPERTY
Pdih
SciTegic.value.DoubleValue
5.466

@<SCITEGIC>MOL_PROPERTY
Idih
SciTegic.value.DoubleValue
0.001

@<SCITEGIC>MOL_PROPERTY
Tether
SciTegic.value.DoubleValue
0.000

@<TRIPOS>MOLECULE
guest-8_vm2.mol2 : vm2 ligand conformer 66
          25          24           1
SMALL
USER_CHARGES
 
@<TRIPOS>ATOM
       1    C1      20.384937   19.656488   26.894145 C.2        1 MOL1         0.6168
       2    O1      21.330397   20.310282   26.499774 O.co2      1 MOL1        -0.6703
       3    O2      20.422162   18.948152   27.881248 O.co2      1 MOL1        -0.6703
       4    C2      19.069836   19.749273   26.125427 C.3        1 MOL1        -0.1963
       5    H1      19.116942   20.612305   25.451672 H          1 MOL1         0.0750
       6    H2      18.281308   19.968268   26.854744 H          1 MOL1         0.0750
       7    C3      18.700605   18.460272   25.341366 C.3        1 MOL1        -0.1860
       8    H3      18.591949   17.632337   26.055551 H          1 MOL1         0.0752
       9    H4      17.716082   18.593410   24.873021 H          1 MOL1         0.0752
      10    C4      19.729256   18.052296   24.258173 C.3        1 MOL1        -0.1858
      11    H5      19.411464   17.096766   23.819126 H          1 MOL1         0.0752
      12    H6      20.706401   17.868059   24.725582 H          1 MOL1         0.0752
      13    C5      19.882877   19.098371   23.130103 C.3        1 MOL1        -0.1858
      14    H7      18.893295   19.331150   22.716331 H          1 MOL1         0.0752
      15    H8      20.290513   20.031254   23.541368 H          1 MOL1         0.0752
      16    C6      20.817372   18.591188   22.007409 C.3        1 MOL1        -0.1858
      17    H9      20.392229   17.686708   21.551373 H          1 MOL1         0.0752
      18    H10     21.777957   18.294698   22.450515 H          1 MOL1         0.0752
      19    C7      21.087711   19.645795   20.909067 C.3        1 MOL1        -0.1834
      20    H11     21.520027   20.549245   21.361003 H          1 MOL1         0.0752
      21    H12     21.846383   19.250306   20.219722 H          1 MOL1         0.0752
      22    C8      19.827846   20.021884   20.099288 C.3        1 MOL1        -0.2849
      23    H13     19.084021   20.527529   20.727587 H          1 MOL1         0.0764
      24    H14     20.088037   20.703384   19.279081 H          1 MOL1         0.0764
      25    H15     19.360838   19.129705   19.662236 H          1 MOL1         0.0764
@<TRIPOS>BOND
    1     1     2    1
    2     1     3    2
    3     1     4    1
    4     4     5    1
    5     4     6    1
    6     4     7    1
    7     7     8    1
    8     7     9    1
    9     7    10    1
   10    10    11    1
   11    10    12    1
   12    10    13    1
   13    13    14    1
   14    13    15    1
   15    13    16    1
   16    16    17    1
   17    16    18    1
   18    16    19    1
   19    19    20    1
   20    19    21    1
   21    19    22    1
   22    22    23    1
   23    22    24    1
   24    22    25    1
@<TRIPOS>SUBSTRUCTURE
       1 MOL1            1 RESIDUE      1      MOL     
@<SCITEGIC>MOL_PROPERTY
VM2 Rank
SciTegic.value.IntegerValue
66

@<SCITEGIC>MOL_PROPERTY
Conf_Id
SciTegic.value.IntegerValue
829

@<SCITEGIC>MOL_PROPERTY
Probability
SciTegic.value.DoubleValue
0.07

@<SCITEGIC>MOL_PROPERTY
Sum Probability
SciTegic.value.DoubleValue
98.46

@<SCITEGIC>MOL_PROPERTY
Delta G
SciTegic.value.DoubleValue
3.459

@<SCITEGIC>MOL_PROPERTY
G
SciTegic.value.DoubleValue
-4.503

@<SCITEGIC>MOL_PROPERTY
E
SciTegic.value.DoubleValue
-29.475

@<SCITEGIC>MOL_PROPERTY
-TS
SciTegic.value.DoubleValue
24.971

@<SCITEGIC>MOL_PROPERTY
U+W
SciTegic.value.DoubleValue
-50.042

@<SCITEGIC>MOL_PROPERTY
U
SciTegic.value.DoubleValue
10.314

@<SCITEGIC>MOL_PROPERTY
W
SciTegic.value.DoubleValue
-60.357

@<SCITEGIC>MOL_PROPERTY
W(PB)
SciTegic.value.DoubleValue
-62.815

@<SCITEGIC>MOL_PROPERTY
W(SA)
SciTegic.value.DoubleValue
2.458

@<SCITEGIC>MOL_PROPERTY
Valence
SciTegic.value.DoubleValue
8.797

@<SCITEGIC>MOL_PROPERTY
Coulomb
SciTegic.value.DoubleValue
0.776

@<SCITEGIC>MOL_PROPERTY
VdW
SciTegic.value.DoubleValue
0.742

@<SCITEGIC>MOL_PROPERTY
VdW6
SciTegic.value.DoubleValue
-10.190

@<SCITEGIC>MOL_PROPERTY
VdW12
SciTegic.value.DoubleValue
10.932

@<SCITEGIC>MOL_PROPERTY
Bond
SciTegic.value.DoubleValue
0.216

@<SCITEGIC>MOL_PROPERTY
Angle
SciTegic.value.DoubleValue
2.999

@<SCITEGIC>MOL_PROPERTY
Pdih
SciTegic.value.DoubleValue
5.581

@<SCITEGIC>MOL_PROPERTY
Idih
SciTegic.value.DoubleValue
0.001

@<SCITEGIC>MOL_PROPERTY
Tether
SciTegic.value.DoubleValue
0.000

@<TRIPOS>MOLECULE
guest-8_vm2.mol2 : vm2 ligand conformer 67
          25          24           1
SMALL
USER_CHARGES
 
@<TRIPOS>ATOM
       1    C1      19.750863   19.249978   26.904630 C.2        1 MOL1         0.6168
       2    O1      20.414162   19.218759   27.922774 O.co2      1 MOL1        -0.6703
       3    O2      18.818052   20.009968   26.733358 O.co2      1 MOL1        -0.6703
       4    C2      20.092902   18.261089   25.793754 C.3        1 MOL1        -0.1963
       5    H1      19.256102   18.223376   25.086902 H          1 MOL1         0.0750
       6    H2      20.158457   17.266890   26.250688 H          1 MOL1         0.0750
       7    C3      21.420994   18.575017   25.052302 C.3        1 MOL1        -0.1860
       8    H3      22.245993   18.537070   25.776948 H          1 MOL1         0.0752
       9    H4      21.624813   17.780113   24.323307 H          1 MOL1         0.0752
      10    C4      21.448164   19.953511   24.342613 C.3        1 MOL1        -0.1858
      11    H5      22.425287   20.081012   23.857257 H          1 MOL1         0.0752
      12    H6      21.382105   20.746799   25.099856 H          1 MOL1         0.0752
      13    C5      20.332624   20.178969   23.291392 C.3        1 MOL1        -0.1858
      14    H7      19.349793   20.166357   23.781326 H          1 MOL1         0.0752
      15    H8      20.450127   21.188543   22.874880 H          1 MOL1         0.0752
      16    C6      20.355924   19.152503   22.135324 C.3        1 MOL1        -0.1858
      17    H9      20.166960   18.144652   22.527281 H          1 MOL1         0.0752
      18    H10     21.354344   19.137772   21.677489 H          1 MOL1         0.0752
      19    C7      19.299543   19.481144   21.059456 C.3        1 MOL1        -0.1834
      20    H11     18.300189   19.499131   21.516010 H          1 MOL1         0.0752
      21    H12     19.483444   20.485597   20.653714 H          1 MOL1         0.0752
      22    C8      19.319771   18.453062   19.910398 C.3        1 MOL1        -0.2849
      23    H13     19.106557   17.442788   20.283563 H          1 MOL1         0.0764
      24    H14     18.563148   18.702071   19.155048 H          1 MOL1         0.0764
      25    H15     20.299825   18.436143   19.415867 H          1 MOL1         0.0764
@<TRIPOS>BOND
    1     1     2    1
    2     1     3    2
    3     1     4    1
    4     4     5    1
    5     4     6    1
    6     4     7    1
    7     7     8    1
    8     7     9    1
    9     7    10    1
   10    10    11    1
   11    10    12    1
   12    10    13    1
   13    13    14    1
   14    13    15    1
   15    13    16    1
   16    16    17    1
   17    16    18    1
   18    16    19    1
   19    19    20    1
   20    19    21    1
   21    19    22    1
   22    22    23    1
   23    22    24    1
   24    22    25    1
@<TRIPOS>SUBSTRUCTURE
       1 MOL1            1 RESIDUE      1      MOL     
@<SCITEGIC>MOL_PROPERTY
VM2 Rank
SciTegic.value.IntegerValue
67

@<SCITEGIC>MOL_PROPERTY
Conf_Id
SciTegic.value.IntegerValue
401

@<SCITEGIC>MOL_PROPERTY
Probability
SciTegic.value.DoubleValue
0.07

@<SCITEGIC>MOL_PROPERTY
Sum Probability
SciTegic.value.DoubleValue
98.53

@<SCITEGIC>MOL_PROPERTY
Delta G
SciTegic.value.DoubleValue
3.466

@<SCITEGIC>MOL_PROPERTY
G
SciTegic.value.DoubleValue
-4.496

@<SCITEGIC>MOL_PROPERTY
E
SciTegic.value.DoubleValue
-29.748

@<SCITEGIC>MOL_PROPERTY
-TS
SciTegic.value.DoubleValue
25.252

@<SCITEGIC>MOL_PROPERTY
U+W
SciTegic.value.DoubleValue
-50.316

@<SCITEGIC>MOL_PROPERTY
U
SciTegic.value.DoubleValue
9.773

@<SCITEGIC>MOL_PROPERTY
W
SciTegic.value.DoubleValue
-60.088

@<SCITEGIC>MOL_PROPERTY
W(PB)
SciTegic.value.DoubleValue
-62.535

@<SCITEGIC>MOL_PROPERTY
W(SA)
SciTegic.value.DoubleValue
2.447

@<SCITEGIC>MOL_PROPERTY
Valence
SciTegic.value.DoubleValue
8.741

@<SCITEGIC>MOL_PROPERTY
Coulomb
SciTegic.value.DoubleValue
0.479

@<SCITEGIC>MOL_PROPERTY
VdW
SciTegic.value.DoubleValue
0.552

@<SCITEGIC>MOL_PROPERTY
VdW6
SciTegic.value.DoubleValue
-10.627

@<SCITEGIC>MOL_PROPERTY
VdW12
SciTegic.value.DoubleValue
11.179

@<SCITEGIC>MOL_PROPERTY
Bond
SciTegic.value.DoubleValue
0.227

@<SCITEGIC>MOL_PROPERTY
Angle
SciTegic.value.DoubleValue
3.155

@<SCITEGIC>MOL_PROPERTY
Pdih
SciTegic.value.DoubleValue
5.358

@<SCITEGIC>MOL_PROPERTY
Idih
SciTegic.value.DoubleValue
0.001

@<SCITEGIC>MOL_PROPERTY
Tether
SciTegic.value.DoubleValue
0.000

@<TRIPOS>MOLECULE
guest-8_vm2.mol2 : vm2 ligand conformer 68
          25          24           1
SMALL
USER_CHARGES
 
@<TRIPOS>ATOM
       1    C1      19.874350   19.785669   26.746387 C.2        1 MOL1         0.6168
       2    O1      20.859933   20.399423   27.105639 O.co2      1 MOL1        -0.6703
       3    O2      18.771775   20.285805   26.640380 O.co2      1 MOL1        -0.6703
       4    C2      20.022465   18.299235   26.433638 C.3        1 MOL1        -0.1963
       5    H1      19.184822   17.777954   26.911714 H          1 MOL1         0.0750
       6    H2      20.939204   17.930838   26.909660 H          1 MOL1         0.0750
       7    C3      20.037174   17.974789   24.917395 C.3        1 MOL1        -0.1860
       8    H3      20.011623   16.885005   24.783802 H          1 MOL1         0.0752
       9    H4      19.121703   18.373359   24.460121 H          1 MOL1         0.0752
      10    C4      21.283272   18.548287   24.201545 C.3        1 MOL1        -0.1858
      11    H5      22.185699   18.201241   24.722917 H          1 MOL1         0.0752
      12    H6      21.290422   19.643266   24.283109 H          1 MOL1         0.0752
      13    C5      21.387616   18.130721   22.713062 C.3        1 MOL1        -0.1858
      14    H7      22.312854   18.549464   22.294453 H          1 MOL1         0.0752
      15    H8      21.497028   17.039161   22.656972 H          1 MOL1         0.0752
      16    C6      20.196062   18.557430   21.818768 C.3        1 MOL1        -0.1858
      17    H9      19.278654   18.053813   22.150387 H          1 MOL1         0.0752
      18    H10     20.385811   18.200312   20.797427 H          1 MOL1         0.0752
      19    C7      19.967576   20.085381   21.781915 C.3        1 MOL1        -0.1834
      20    H11     19.694364   20.449159   22.781640 H          1 MOL1         0.0752
      21    H12     20.899965   20.592933   21.498956 H          1 MOL1         0.0752
      22    C8      18.852778   20.467261   20.787270 C.3        1 MOL1        -0.2849
      23    H13     17.901489   19.994305   21.064217 H          1 MOL1         0.0764
      24    H14     18.700261   21.554278   20.776199 H          1 MOL1         0.0764
      25    H15     19.109597   20.150660   19.767920 H          1 MOL1         0.0764
@<TRIPOS>BOND
    1     1     2    1
    2     1     3    2
    3     1     4    1
    4     4     5    1
    5     4     6    1
    6     4     7    1
    7     7     8    1
    8     7     9    1
    9     7    10    1
   10    10    11    1
   11    10    12    1
   12    10    13    1
   13    13    14    1
   14    13    15    1
   15    13    16    1
   16    16    17    1
   17    16    18    1
   18    16    19    1
   19    19    20    1
   20    19    21    1
   21    19    22    1
   22    22    23    1
   23    22    24    1
   24    22    25    1
@<TRIPOS>SUBSTRUCTURE
       1 MOL1            1 RESIDUE      1      MOL     
@<SCITEGIC>MOL_PROPERTY
VM2 Rank
SciTegic.value.IntegerValue
68

@<SCITEGIC>MOL_PROPERTY
Conf_Id
SciTegic.value.IntegerValue
446

@<SCITEGIC>MOL_PROPERTY
Probability
SciTegic.value.DoubleValue
0.07

@<SCITEGIC>MOL_PROPERTY
Sum Probability
SciTegic.value.DoubleValue
98.60

@<SCITEGIC>MOL_PROPERTY
Delta G
SciTegic.value.DoubleValue
3.471

@<SCITEGIC>MOL_PROPERTY
G
SciTegic.value.DoubleValue
-4.491

@<SCITEGIC>MOL_PROPERTY
E
SciTegic.value.DoubleValue
-29.651

@<SCITEGIC>MOL_PROPERTY
-TS
SciTegic.value.DoubleValue
25.160

@<SCITEGIC>MOL_PROPERTY
U+W
SciTegic.value.DoubleValue
-50.218

@<SCITEGIC>MOL_PROPERTY
U
SciTegic.value.DoubleValue
10.375

@<SCITEGIC>MOL_PROPERTY
W
SciTegic.value.DoubleValue
-60.593

@<SCITEGIC>MOL_PROPERTY
W(PB)
SciTegic.value.DoubleValue
-63.000

@<SCITEGIC>MOL_PROPERTY
W(SA)
SciTegic.value.DoubleValue
2.407

@<SCITEGIC>MOL_PROPERTY
Valence
SciTegic.value.DoubleValue
8.732

@<SCITEGIC>MOL_PROPERTY
Coulomb
SciTegic.value.DoubleValue
0.993

@<SCITEGIC>MOL_PROPERTY
VdW
SciTegic.value.DoubleValue
0.650

@<SCITEGIC>MOL_PROPERTY
VdW6
SciTegic.value.DoubleValue
-10.415

@<SCITEGIC>MOL_PROPERTY
VdW12
SciTegic.value.DoubleValue
11.064

@<SCITEGIC>MOL_PROPERTY
Bond
SciTegic.value.DoubleValue
0.214

@<SCITEGIC>MOL_PROPERTY
Angle
SciTegic.value.DoubleValue
3.066

@<SCITEGIC>MOL_PROPERTY
Pdih
SciTegic.value.DoubleValue
5.452

@<SCITEGIC>MOL_PROPERTY
Idih
SciTegic.value.DoubleValue
0.001

@<SCITEGIC>MOL_PROPERTY
Tether
SciTegic.value.DoubleValue
0.000

@<TRIPOS>MOLECULE
guest-8_vm2.mol2 : vm2 ligand conformer 69
          25          24           1
SMALL
USER_CHARGES
 
@<TRIPOS>ATOM
       1    C1      20.318751   19.631669   26.995346 C.2        1 MOL1         0.6168
       2    O1      21.325828   20.259176   26.732763 O.co2      1 MOL1        -0.6703
       3    O2      19.427006   20.056701   27.703589 O.co2      1 MOL1        -0.6703
       4    C2      20.176410   18.221836   26.428701 C.3        1 MOL1        -0.1963
       5    H1      19.918134   17.560246   27.263722 H          1 MOL1         0.0750
       6    H2      21.154469   17.889794   26.062926 H          1 MOL1         0.0750
       7    C3      19.098966   18.089635   25.317511 C.3        1 MOL1        -0.1860
       8    H3      19.026220   17.037969   25.009207 H          1 MOL1         0.0752
       9    H4      18.121261   18.352849   25.744326 H          1 MOL1         0.0752
      10    C4      19.348725   18.970920   24.068578 C.3        1 MOL1        -0.1858
      11    H5      19.387156   20.028754   24.362672 H          1 MOL1         0.0752
      12    H6      18.482735   18.866195   23.403119 H          1 MOL1         0.0752
      13    C5      20.640387   18.598565   23.299912 C.3        1 MOL1        -0.1858
      14    H7      21.505356   18.725555   23.963663 H          1 MOL1         0.0752
      15    H8      20.613941   17.537085   23.018787 H          1 MOL1         0.0752
      16    C6      20.878796   19.463615   22.039064 C.3        1 MOL1        -0.1858
      17    H9      21.881224   19.239263   21.649643 H          1 MOL1         0.0752
      18    H10     20.885467   20.526139   22.318304 H          1 MOL1         0.0752
      19    C7      19.842626   19.224112   20.917382 C.3        1 MOL1        -0.1834
      20    H11     19.796153   18.152698   20.678459 H          1 MOL1         0.0752
      21    H12     18.841458   19.520918   21.255737 H          1 MOL1         0.0752
      22    C8      20.195504   20.017772   19.643155 C.3        1 MOL1        -0.2849
      23    H13     21.176652   19.718129   19.252128 H          1 MOL1         0.0764
      24    H14     19.449386   19.840133   18.857788 H          1 MOL1         0.0764
      25    H15     20.222460   21.096146   19.847501 H          1 MOL1         0.0764
@<TRIPOS>BOND
    1     1     2    1
    2     1     3    2
    3     1     4    1
    4     4     5    1
    5     4     6    1
    6     4     7    1
    7     7     8    1
    8     7     9    1
    9     7    10    1
   10    10    11    1
   11    10    12    1
   12    10    13    1
   13    13    14    1
   14    13    15    1
   15    13    16    1
   16    16    17    1
   17    16    18    1
   18    16    19    1
   19    19    20    1
   20    19    21    1
   21    19    22    1
   22    22    23    1
   23    22    24    1
   24    22    25    1
@<TRIPOS>SUBSTRUCTURE
       1 MOL1            1 RESIDUE      1      MOL     
@<SCITEGIC>MOL_PROPERTY
VM2 Rank
SciTegic.value.IntegerValue
69

@<SCITEGIC>MOL_PROPERTY
Conf_Id
SciTegic.value.IntegerValue
1072

@<SCITEGIC>MOL_PROPERTY
Probability
SciTegic.value.DoubleValue
0.07

@<SCITEGIC>MOL_PROPERTY
Sum Probability
SciTegic.value.DoubleValue
98.67

@<SCITEGIC>MOL_PROPERTY
Delta G
SciTegic.value.DoubleValue
3.492

@<SCITEGIC>MOL_PROPERTY
G
SciTegic.value.DoubleValue
-4.470

@<SCITEGIC>MOL_PROPERTY
E
SciTegic.value.DoubleValue
-29.368

@<SCITEGIC>MOL_PROPERTY
-TS
SciTegic.value.DoubleValue
24.898

@<SCITEGIC>MOL_PROPERTY
U+W
SciTegic.value.DoubleValue
-49.935

@<SCITEGIC>MOL_PROPERTY
U
SciTegic.value.DoubleValue
10.274

@<SCITEGIC>MOL_PROPERTY
W
SciTegic.value.DoubleValue
-60.209

@<SCITEGIC>MOL_PROPERTY
W(PB)
SciTegic.value.DoubleValue
-62.630

@<SCITEGIC>MOL_PROPERTY
W(SA)
SciTegic.value.DoubleValue
2.421

@<SCITEGIC>MOL_PROPERTY
Valence
SciTegic.value.DoubleValue
8.912

@<SCITEGIC>MOL_PROPERTY
Coulomb
SciTegic.value.DoubleValue
0.553

@<SCITEGIC>MOL_PROPERTY
VdW
SciTegic.value.DoubleValue
0.809

@<SCITEGIC>MOL_PROPERTY
VdW6
SciTegic.value.DoubleValue
-10.136

@<SCITEGIC>MOL_PROPERTY
VdW12
SciTegic.value.DoubleValue
10.945

@<SCITEGIC>MOL_PROPERTY
Bond
SciTegic.value.DoubleValue
0.229

@<SCITEGIC>MOL_PROPERTY
Angle
SciTegic.value.DoubleValue
3.100

@<SCITEGIC>MOL_PROPERTY
Pdih
SciTegic.value.DoubleValue
5.582

@<SCITEGIC>MOL_PROPERTY
Idih
SciTegic.value.DoubleValue
0.001

@<SCITEGIC>MOL_PROPERTY
Tether
SciTegic.value.DoubleValue
0.000

@<TRIPOS>MOLECULE
guest-8_vm2.mol2 : vm2 ligand conformer 70
          25          24           1
SMALL
USER_CHARGES
 
@<TRIPOS>ATOM
       1    C1      20.362215   19.816891   26.740841 C.2        1 MOL1         0.6168
       2    O1      21.389281   20.453425   26.610438 O.co2      1 MOL1        -0.6703
       3    O2      19.314876   20.300414   27.123485 O.co2      1 MOL1        -0.6703
       4    C2      20.397805   18.323271   26.429288 C.3        1 MOL1        -0.1963
       5    H1      19.546773   17.841588   26.925726 H          1 MOL1         0.0750
       6    H2      21.305902   17.913795   26.887140 H          1 MOL1         0.0750
       7    C3      20.389684   17.997467   24.913286 C.3        1 MOL1        -0.1860
       8    H3      21.236058   18.508907   24.435661 H          1 MOL1         0.0752
       9    H4      20.550949   16.919658   24.777464 H          1 MOL1         0.0752
      10    C4      19.064460   18.406322   24.227195 C.3        1 MOL1        -0.1858
      11    H5      18.919643   19.491575   24.310476 H          1 MOL1         0.0752
      12    H6      18.225913   17.947842   24.768745 H          1 MOL1         0.0752
      13    C5      18.979905   17.976600   22.740918 C.3        1 MOL1        -0.1858
      14    H7      19.009292   16.879914   22.685805 H          1 MOL1         0.0752
      15    H8      17.999421   18.273320   22.344366 H          1 MOL1         0.0752
      16    C6      20.086386   18.550378   21.819983 C.3        1 MOL1        -0.1858
      17    H9      19.920191   18.170457   20.802773 H          1 MOL1         0.0752
      18    H10     21.067910   18.168305   22.129609 H          1 MOL1         0.0752
      19    C7      20.117344   20.094932   21.780099 C.3        1 MOL1        -0.1834
      20    H11     19.121568   20.479092   21.519566 H          1 MOL1         0.0752
      21    H12     20.365049   20.492045   22.773766 H          1 MOL1         0.0752
      22    C8      21.151043   20.614300   20.760466 C.3        1 MOL1        -0.2849
      23    H13     20.913127   20.266046   19.746868 H          1 MOL1         0.0764
      24    H14     21.163490   21.711873   20.747479 H          1 MOL1         0.0764
      25    H15     22.161007   20.266844   21.014601 H          1 MOL1         0.0764
@<TRIPOS>BOND
    1     1     2    1
    2     1     3    2
    3     1     4    1
    4     4     5    1
    5     4     6    1
    6     4     7    1
    7     7     8    1
    8     7     9    1
    9     7    10    1
   10    10    11    1
   11    10    12    1
   12    10    13    1
   13    13    14    1
   14    13    15    1
   15    13    16    1
   16    16    17    1
   17    16    18    1
   18    16    19    1
   19    19    20    1
   20    19    21    1
   21    19    22    1
   22    22    23    1
   23    22    24    1
   24    22    25    1
@<TRIPOS>SUBSTRUCTURE
       1 MOL1            1 RESIDUE      1      MOL     
@<SCITEGIC>MOL_PROPERTY
VM2 Rank
SciTegic.value.IntegerValue
70

@<SCITEGIC>MOL_PROPERTY
Conf_Id
SciTegic.value.IntegerValue
1003

@<SCITEGIC>MOL_PROPERTY
Probability
SciTegic.value.DoubleValue
0.07

@<SCITEGIC>MOL_PROPERTY
Sum Probability
SciTegic.value.DoubleValue
98.74

@<SCITEGIC>MOL_PROPERTY
Delta G
SciTegic.value.DoubleValue
3.506

@<SCITEGIC>MOL_PROPERTY
G
SciTegic.value.DoubleValue
-4.457

@<SCITEGIC>MOL_PROPERTY
E
SciTegic.value.DoubleValue
-29.616

@<SCITEGIC>MOL_PROPERTY
-TS
SciTegic.value.DoubleValue
25.159

@<SCITEGIC>MOL_PROPERTY
U+W
SciTegic.value.DoubleValue
-50.184

@<SCITEGIC>MOL_PROPERTY
U
SciTegic.value.DoubleValue
10.374

@<SCITEGIC>MOL_PROPERTY
W
SciTegic.value.DoubleValue
-60.558

@<SCITEGIC>MOL_PROPERTY
W(PB)
SciTegic.value.DoubleValue
-62.973

@<SCITEGIC>MOL_PROPERTY
W(SA)
SciTegic.value.DoubleValue
2.415

@<SCITEGIC>MOL_PROPERTY
Valence
SciTegic.value.DoubleValue
8.733

@<SCITEGIC>MOL_PROPERTY
Coulomb
SciTegic.value.DoubleValue
0.992

@<SCITEGIC>MOL_PROPERTY
VdW
SciTegic.value.DoubleValue
0.650

@<SCITEGIC>MOL_PROPERTY
VdW6
SciTegic.value.DoubleValue
-10.415

@<SCITEGIC>MOL_PROPERTY
VdW12
SciTegic.value.DoubleValue
11.064

@<SCITEGIC>MOL_PROPERTY
Bond
SciTegic.value.DoubleValue
0.214

@<SCITEGIC>MOL_PROPERTY
Angle
SciTegic.value.DoubleValue
3.066

@<SCITEGIC>MOL_PROPERTY
Pdih
SciTegic.value.DoubleValue
5.452

@<SCITEGIC>MOL_PROPERTY
Idih
SciTegic.value.DoubleValue
0.001

@<SCITEGIC>MOL_PROPERTY
Tether
SciTegic.value.DoubleValue
0.000

@<TRIPOS>MOLECULE
guest-8_vm2.mol2 : vm2 ligand conformer 71
          25          24           1
SMALL
USER_CHARGES
 
@<TRIPOS>ATOM
       1    C1      20.556533   19.301220   26.895637 C.2        1 MOL1         0.6168
       2    O1      21.381175   20.173236   26.704303 O.co2      1 MOL1        -0.6703
       3    O2      19.925995   19.187431   27.928610 O.co2      1 MOL1        -0.6703
       4    C2      20.317439   18.275472   25.791275 C.3        1 MOL1        -0.1963
       5    H1      20.389006   17.281591   26.247999 H          1 MOL1         0.0750
       6    H2      21.135891   18.343310   25.065445 H          1 MOL1         0.0750
       7    C3      18.943655   18.417399   25.080854 C.3        1 MOL1        -0.1860
       8    H3      18.825640   17.602019   24.355544 H          1 MOL1         0.0752
       9    H4      18.146921   18.276197   25.824126 H          1 MOL1         0.0752
      10    C4      18.725711   19.780309   24.374018 C.3        1 MOL1        -0.1858
      11    H5      18.708228   20.576682   25.130701 H          1 MOL1         0.0752
      12    H6      17.729363   19.782306   23.911544 H          1 MOL1         0.0752
      13    C5      19.779129   20.143706   23.297643 C.3        1 MOL1        -0.1858
      14    H7      19.525108   21.129664   22.885460 H          1 MOL1         0.0752
      15    H8      20.766704   20.256380   23.764711 H          1 MOL1         0.0752
      16    C6      19.859300   19.120876   22.140895 C.3        1 MOL1        -0.1858
      17    H9      18.860451   18.979066   21.706309 H          1 MOL1         0.0752
      18    H10     20.183505   18.145672   22.526864 H          1 MOL1         0.0752
      19    C7      20.840278   19.579171   21.041309 C.3        1 MOL1        -0.1834
      20    H11     20.521238   20.551653   20.641478 H          1 MOL1         0.0752
      21    H12     21.839628   19.724271   21.474576 H          1 MOL1         0.0752
      22    C8      20.923785   18.555179   19.891456 C.3        1 MOL1        -0.2849
      23    H13     19.942560   18.413556   19.419767 H          1 MOL1         0.0764
      24    H14     21.625040   18.896950   19.119141 H          1 MOL1         0.0764
      25    H15     21.271847   17.580580   20.258027 H          1 MOL1         0.0764
@<TRIPOS>BOND
    1     1     2    1
    2     1     3    2
    3     1     4    1
    4     4     5    1
    5     4     6    1
    6     4     7    1
    7     7     8    1
    8     7     9    1
    9     7    10    1
   10    10    11    1
   11    10    12    1
   12    10    13    1
   13    13    14    1
   14    13    15    1
   15    13    16    1
   16    16    17    1
   17    16    18    1
   18    16    19    1
   19    19    20    1
   20    19    21    1
   21    19    22    1
   22    22    23    1
   23    22    24    1
   24    22    25    1
@<TRIPOS>SUBSTRUCTURE
       1 MOL1            1 RESIDUE      1      MOL     
@<SCITEGIC>MOL_PROPERTY
VM2 Rank
SciTegic.value.IntegerValue
71

@<SCITEGIC>MOL_PROPERTY
Conf_Id
SciTegic.value.IntegerValue
1020

@<SCITEGIC>MOL_PROPERTY
Probability
SciTegic.value.DoubleValue
0.06

@<SCITEGIC>MOL_PROPERTY
Sum Probability
SciTegic.value.DoubleValue
98.80

@<SCITEGIC>MOL_PROPERTY
Delta G
SciTegic.value.DoubleValue
3.530

@<SCITEGIC>MOL_PROPERTY
G
SciTegic.value.DoubleValue
-4.433

@<SCITEGIC>MOL_PROPERTY
E
SciTegic.value.DoubleValue
-29.684

@<SCITEGIC>MOL_PROPERTY
-TS
SciTegic.value.DoubleValue
25.252

@<SCITEGIC>MOL_PROPERTY
U+W
SciTegic.value.DoubleValue
-50.252

@<SCITEGIC>MOL_PROPERTY
U
SciTegic.value.DoubleValue
9.772

@<SCITEGIC>MOL_PROPERTY
W
SciTegic.value.DoubleValue
-60.024

@<SCITEGIC>MOL_PROPERTY
W(PB)
SciTegic.value.DoubleValue
-62.442

@<SCITEGIC>MOL_PROPERTY
W(SA)
SciTegic.value.DoubleValue
2.418

@<SCITEGIC>MOL_PROPERTY
Valence
SciTegic.value.DoubleValue
8.741

@<SCITEGIC>MOL_PROPERTY
Coulomb
SciTegic.value.DoubleValue
0.478

@<SCITEGIC>MOL_PROPERTY
VdW
SciTegic.value.DoubleValue
0.552

@<SCITEGIC>MOL_PROPERTY
VdW6
SciTegic.value.DoubleValue
-10.626

@<SCITEGIC>MOL_PROPERTY
VdW12
SciTegic.value.DoubleValue
11.179

@<SCITEGIC>MOL_PROPERTY
Bond
SciTegic.value.DoubleValue
0.227

@<SCITEGIC>MOL_PROPERTY
Angle
SciTegic.value.DoubleValue
3.155

@<SCITEGIC>MOL_PROPERTY
Pdih
SciTegic.value.DoubleValue
5.358

@<SCITEGIC>MOL_PROPERTY
Idih
SciTegic.value.DoubleValue
0.001

@<SCITEGIC>MOL_PROPERTY
Tether
SciTegic.value.DoubleValue
0.000

@<TRIPOS>MOLECULE
guest-8_vm2.mol2 : vm2 ligand conformer 72
          25          24           1
SMALL
USER_CHARGES
 
@<TRIPOS>ATOM
       1    C1      19.947043   19.607871   26.999659 C.2        1 MOL1         0.6168
       2    O1      20.793556   20.143972   27.687757 O.co2      1 MOL1        -0.6703
       3    O2      18.862493   20.101711   26.761353 O.co2      1 MOL1        -0.6703
       4    C2      20.254545   18.226793   26.427778 C.3        1 MOL1        -0.1963
       5    H1      19.318530   17.772465   26.084111 H          1 MOL1         0.0750
       6    H2      20.614058   17.604655   27.255645 H          1 MOL1         0.0750
       7    C3      21.314190   18.231168   25.291891 C.3        1 MOL1        -0.1860
       8    H3      22.260024   18.617241   25.696497 H          1 MOL1         0.0752
       9    H4      21.513030   17.196864   24.980401 H          1 MOL1         0.0752
      10    C4      20.925663   19.071740   24.050372 C.3        1 MOL1        -0.1858
      11    H5      21.782374   19.077060   23.364981 H          1 MOL1         0.0752
      12    H6      20.759787   20.116515   24.346874 H          1 MOL1         0.0752
      13    C5      19.674477   18.537031   23.311112 C.3        1 MOL1        -0.1858
      14    H7      19.829181   17.487105   23.027927 H          1 MOL1         0.0752
      15    H8      18.815898   18.554020   23.994792 H          1 MOL1         0.0752
      16    C6      19.299052   19.362853   22.057332 C.3        1 MOL1        -0.1858
      17    H9      19.163879   20.416345   22.338153 H          1 MOL1         0.0752
      18    H10     18.324537   19.012356   21.690840 H          1 MOL1         0.0752
      19    C7      20.331085   19.255221   20.911686 C.3        1 MOL1        -0.1834
      20    H11     21.293967   19.677350   21.227248 H          1 MOL1         0.0752
      21    H12     20.507790   18.198028   20.670250 H          1 MOL1         0.0752
      22    C8      19.850898   19.995640   19.647061 C.3        1 MOL1        -0.2849
      23    H13     19.691869   21.062164   19.853482 H          1 MOL1         0.0764
      24    H14     20.595203   19.913023   18.844420 H          1 MOL1         0.0764
      25    H15     18.907009   19.573159   19.278384 H          1 MOL1         0.0764
@<TRIPOS>BOND
    1     1     2    1
    2     1     3    2
    3     1     4    1
    4     4     5    1
    5     4     6    1
    6     4     7    1
    7     7     8    1
    8     7     9    1
    9     7    10    1
   10    10    11    1
   11    10    12    1
   12    10    13    1
   13    13    14    1
   14    13    15    1
   15    13    16    1
   16    16    17    1
   17    16    18    1
   18    16    19    1
   19    19    20    1
   20    19    21    1
   21    19    22    1
   22    22    23    1
   23    22    24    1
   24    22    25    1
@<TRIPOS>SUBSTRUCTURE
       1 MOL1            1 RESIDUE      1      MOL     
@<SCITEGIC>MOL_PROPERTY
VM2 Rank
SciTegic.value.IntegerValue
72

@<SCITEGIC>MOL_PROPERTY
Conf_Id
SciTegic.value.IntegerValue
135

@<SCITEGIC>MOL_PROPERTY
Probability
SciTegic.value.DoubleValue
0.06

@<SCITEGIC>MOL_PROPERTY
Sum Probability
SciTegic.value.DoubleValue
98.86

@<SCITEGIC>MOL_PROPERTY
Delta G
SciTegic.value.DoubleValue
3.532

@<SCITEGIC>MOL_PROPERTY
G
SciTegic.value.DoubleValue
-4.430

@<SCITEGIC>MOL_PROPERTY
E
SciTegic.value.DoubleValue
-29.328

@<SCITEGIC>MOL_PROPERTY
-TS
SciTegic.value.DoubleValue
24.897

@<SCITEGIC>MOL_PROPERTY
U+W
SciTegic.value.DoubleValue
-49.895

@<SCITEGIC>MOL_PROPERTY
U
SciTegic.value.DoubleValue
10.274

@<SCITEGIC>MOL_PROPERTY
W
SciTegic.value.DoubleValue
-60.169

@<SCITEGIC>MOL_PROPERTY
W(PB)
SciTegic.value.DoubleValue
-62.622

@<SCITEGIC>MOL_PROPERTY
W(SA)
SciTegic.value.DoubleValue
2.453

@<SCITEGIC>MOL_PROPERTY
Valence
SciTegic.value.DoubleValue
8.912

@<SCITEGIC>MOL_PROPERTY
Coulomb
SciTegic.value.DoubleValue
0.553

@<SCITEGIC>MOL_PROPERTY
VdW
SciTegic.value.DoubleValue
0.809

@<SCITEGIC>MOL_PROPERTY
VdW6
SciTegic.value.DoubleValue
-10.136

@<SCITEGIC>MOL_PROPERTY
VdW12
SciTegic.value.DoubleValue
10.945

@<SCITEGIC>MOL_PROPERTY
Bond
SciTegic.value.DoubleValue
0.229

@<SCITEGIC>MOL_PROPERTY
Angle
SciTegic.value.DoubleValue
3.100

@<SCITEGIC>MOL_PROPERTY
Pdih
SciTegic.value.DoubleValue
5.582

@<SCITEGIC>MOL_PROPERTY
Idih
SciTegic.value.DoubleValue
0.001

@<SCITEGIC>MOL_PROPERTY
Tether
SciTegic.value.DoubleValue
0.000

@<TRIPOS>MOLECULE
guest-8_vm2.mol2 : vm2 ligand conformer 73
          25          24           1
SMALL
USER_CHARGES
 
@<TRIPOS>ATOM
       1    C1      19.702285   19.586526   26.763083 C.2        1 MOL1         0.6168
       2    O1      20.352992   19.916141   27.735438 O.co2      1 MOL1        -0.6703
       3    O2      18.854047   20.290567   26.251609 O.co2      1 MOL1        -0.6703
       4    C2      19.945540   18.200781   26.171790 C.3        1 MOL1        -0.1963
       5    H1      19.118665   17.957508   25.494984 H          1 MOL1         0.0750
       6    H2      19.892307   17.481142   26.996961 H          1 MOL1         0.0750
       7    C3      21.311055   18.050565   25.446837 C.3        1 MOL1        -0.1860
       8    H3      22.116496   18.230881   26.172165 H          1 MOL1         0.0752
       9    H4      21.427556   17.011590   25.110223 H          1 MOL1         0.0752
      10    C4      21.504996   19.001878   24.240436 C.3        1 MOL1        -0.1858
      11    H5      22.524241   18.867694   23.853332 H          1 MOL1         0.0752
      12    H6      21.436757   20.045862   24.576135 H          1 MOL1         0.0752
      13    C5      20.494049   18.758992   23.096044 C.3        1 MOL1        -0.1858
      14    H7      20.515846   17.700408   22.804039 H          1 MOL1         0.0752
      15    H8      19.479918   18.976159   23.453889 H          1 MOL1         0.0752
      16    C6      20.804647   19.641318   21.864672 C.3        1 MOL1        -0.1858
      17    H9      21.844431   19.470027   21.554388 H          1 MOL1         0.0752
      18    H10     20.733375   20.701661   22.143165 H          1 MOL1         0.0752
      19    C7      19.880136   19.360028   20.657168 C.3        1 MOL1        -0.1834
      20    H11     20.240689   19.938120   19.795190 H          1 MOL1         0.0752
      21    H12     19.952973   18.301174   20.372926 H          1 MOL1         0.0752
      22    C8      18.403254   19.727203   20.918923 C.3        1 MOL1        -0.2849
      23    H13     17.964366   19.091643   21.698162 H          1 MOL1         0.0764
      24    H14     18.308894   20.774243   21.235074 H          1 MOL1         0.0764
      25    H15     17.807007   19.594236   20.006967 H          1 MOL1         0.0764
@<TRIPOS>BOND
    1     1     2    1
    2     1     3    2
    3     1     4    1
    4     4     5    1
    5     4     6    1
    6     4     7    1
    7     7     8    1
    8     7     9    1
    9     7    10    1
   10    10    11    1
   11    10    12    1
   12    10    13    1
   13    13    14    1
   14    13    15    1
   15    13    16    1
   16    16    17    1
   17    16    18    1
   18    16    19    1
   19    19    20    1
   20    19    21    1
   21    19    22    1
   22    22    23    1
   23    22    24    1
   24    22    25    1
@<TRIPOS>SUBSTRUCTURE
       1 MOL1            1 RESIDUE      1      MOL     
@<SCITEGIC>MOL_PROPERTY
VM2 Rank
SciTegic.value.IntegerValue
73

@<SCITEGIC>MOL_PROPERTY
Conf_Id
SciTegic.value.IntegerValue
378

@<SCITEGIC>MOL_PROPERTY
Probability
SciTegic.value.DoubleValue
0.06

@<SCITEGIC>MOL_PROPERTY
Sum Probability
SciTegic.value.DoubleValue
98.92

@<SCITEGIC>MOL_PROPERTY
Delta G
SciTegic.value.DoubleValue
3.536

@<SCITEGIC>MOL_PROPERTY
G
SciTegic.value.DoubleValue
-4.426

@<SCITEGIC>MOL_PROPERTY
E
SciTegic.value.DoubleValue
-29.381

@<SCITEGIC>MOL_PROPERTY
-TS
SciTegic.value.DoubleValue
24.954

@<SCITEGIC>MOL_PROPERTY
U+W
SciTegic.value.DoubleValue
-49.948

@<SCITEGIC>MOL_PROPERTY
U
SciTegic.value.DoubleValue
10.718

@<SCITEGIC>MOL_PROPERTY
W
SciTegic.value.DoubleValue
-60.666

@<SCITEGIC>MOL_PROPERTY
W(PB)
SciTegic.value.DoubleValue
-63.099

@<SCITEGIC>MOL_PROPERTY
W(SA)
SciTegic.value.DoubleValue
2.433

@<SCITEGIC>MOL_PROPERTY
Valence
SciTegic.value.DoubleValue
8.799

@<SCITEGIC>MOL_PROPERTY
Coulomb
SciTegic.value.DoubleValue
1.201

@<SCITEGIC>MOL_PROPERTY
VdW
SciTegic.value.DoubleValue
0.718

@<SCITEGIC>MOL_PROPERTY
VdW6
SciTegic.value.DoubleValue
-10.234

@<SCITEGIC>MOL_PROPERTY
VdW12
SciTegic.value.DoubleValue
10.952

@<SCITEGIC>MOL_PROPERTY
Bond
SciTegic.value.DoubleValue
0.218

@<SCITEGIC>MOL_PROPERTY
Angle
SciTegic.value.DoubleValue
3.002

@<SCITEGIC>MOL_PROPERTY
Pdih
SciTegic.value.DoubleValue
5.578

@<SCITEGIC>MOL_PROPERTY
Idih
SciTegic.value.DoubleValue
0.001

@<SCITEGIC>MOL_PROPERTY
Tether
SciTegic.value.DoubleValue
0.000

@<TRIPOS>MOLECULE
guest-8_vm2.mol2 : vm2 ligand conformer 74
          25          24           1
SMALL
USER_CHARGES
 
@<TRIPOS>ATOM
       1    C1      20.558816   19.641016   26.753506 C.2        1 MOL1         0.6168
       2    O1      21.298583   20.446578   26.223786 O.co2      1 MOL1        -0.6703
       3    O2      19.894176   19.886395   27.741221 O.co2      1 MOL1        -0.6703
       4    C2      20.480054   18.234897   26.165532 C.3        1 MOL1        -0.1963
       5    H1      20.643268   17.528836   26.988005 H          1 MOL1         0.0750
       6    H2      21.315335   18.097856   25.469478 H          1 MOL1         0.0750
       7    C3      19.128361   17.911549   25.471903 C.3        1 MOL1        -0.1860
       8    H3      19.136988   16.865739   25.136407 H          1 MOL1         0.0752
       9    H4      18.323440   17.989121   26.215833 H          1 MOL1         0.0752
      10    C4      18.787536   18.828939   24.271799 C.3        1 MOL1        -0.1858
      11    H5      18.730687   19.873619   24.607452 H          1 MOL1         0.0752
      12    H6      17.784820   18.566133   23.908190 H          1 MOL1         0.0752
      13    C5      19.794322   18.714523   23.103921 C.3        1 MOL1        -0.1858
      14    H7      20.780804   19.058849   23.438538 H          1 MOL1         0.0752
      15    H8      19.900000   17.661317   22.810782 H          1 MOL1         0.0752
      16    C6      19.346044   19.548780   21.881499 C.3        1 MOL1        -0.1858
      17    H9      19.289044   20.609996   22.159953 H          1 MOL1         0.0752
      18    H10     18.329356   19.246896   21.595180 H          1 MOL1         0.0752
      19    C7      20.270385   19.385088   20.652389 C.3        1 MOL1        -0.1834
      20    H11     20.325331   18.325171   20.368089 H          1 MOL1         0.0752
      21    H12     19.819749   19.911931   19.800004 H          1 MOL1         0.0752
      22    C8      21.694724   19.936236   20.880444 C.3        1 MOL1        -0.2849
      23    H13     22.281590   19.878717   19.954628 H          1 MOL1         0.0764
      24    H14     21.663361   20.987139   21.196302 H          1 MOL1         0.0764
      25    H15     22.228428   19.362052   21.648069 H          1 MOL1         0.0764
@<TRIPOS>BOND
    1     1     2    1
    2     1     3    2
    3     1     4    1
    4     4     5    1
    5     4     6    1
    6     4     7    1
    7     7     8    1
    8     7     9    1
    9     7    10    1
   10    10    11    1
   11    10    12    1
   12    10    13    1
   13    13    14    1
   14    13    15    1
   15    13    16    1
   16    16    17    1
   17    16    18    1
   18    16    19    1
   19    19    20    1
   20    19    21    1
   21    19    22    1
   22    22    23    1
   23    22    24    1
   24    22    25    1
@<TRIPOS>SUBSTRUCTURE
       1 MOL1            1 RESIDUE      1      MOL     
@<SCITEGIC>MOL_PROPERTY
VM2 Rank
SciTegic.value.IntegerValue
74

@<SCITEGIC>MOL_PROPERTY
Conf_Id
SciTegic.value.IntegerValue
670

@<SCITEGIC>MOL_PROPERTY
Probability
SciTegic.value.DoubleValue
0.06

@<SCITEGIC>MOL_PROPERTY
Sum Probability
SciTegic.value.DoubleValue
98.99

@<SCITEGIC>MOL_PROPERTY
Delta G
SciTegic.value.DoubleValue
3.542

@<SCITEGIC>MOL_PROPERTY
G
SciTegic.value.DoubleValue
-4.420

@<SCITEGIC>MOL_PROPERTY
E
SciTegic.value.DoubleValue
-29.375

@<SCITEGIC>MOL_PROPERTY
-TS
SciTegic.value.DoubleValue
24.955

@<SCITEGIC>MOL_PROPERTY
U+W
SciTegic.value.DoubleValue
-49.943

@<SCITEGIC>MOL_PROPERTY
U
SciTegic.value.DoubleValue
10.717

@<SCITEGIC>MOL_PROPERTY
W
SciTegic.value.DoubleValue
-60.659

@<SCITEGIC>MOL_PROPERTY
W(PB)
SciTegic.value.DoubleValue
-63.085

@<SCITEGIC>MOL_PROPERTY
W(SA)
SciTegic.value.DoubleValue
2.426

@<SCITEGIC>MOL_PROPERTY
Valence
SciTegic.value.DoubleValue
8.799

@<SCITEGIC>MOL_PROPERTY
Coulomb
SciTegic.value.DoubleValue
1.200

@<SCITEGIC>MOL_PROPERTY
VdW
SciTegic.value.DoubleValue
0.718

@<SCITEGIC>MOL_PROPERTY
VdW6
SciTegic.value.DoubleValue
-10.234

@<SCITEGIC>MOL_PROPERTY
VdW12
SciTegic.value.DoubleValue
10.951

@<SCITEGIC>MOL_PROPERTY
Bond
SciTegic.value.DoubleValue
0.218

@<SCITEGIC>MOL_PROPERTY
Angle
SciTegic.value.DoubleValue
3.002

@<SCITEGIC>MOL_PROPERTY
Pdih
SciTegic.value.DoubleValue
5.579

@<SCITEGIC>MOL_PROPERTY
Idih
SciTegic.value.DoubleValue
0.001

@<SCITEGIC>MOL_PROPERTY
Tether
SciTegic.value.DoubleValue
0.000

@<TRIPOS>MOLECULE
guest-8_vm2.mol2 : vm2 ligand conformer 75
          25          24           1
SMALL
USER_CHARGES
 
@<TRIPOS>ATOM
       1    C1      19.935010   19.828530   26.699808 C.2        1 MOL1         0.6168
       2    O1      20.807788   20.307350   27.397333 O.co2      1 MOL1        -0.6703
       3    O2      19.024147   20.476395   26.222848 O.co2      1 MOL1        -0.6703
       4    C2      19.970705   18.325985   26.434413 C.3        1 MOL1        -0.1963
       5    H1      18.999115   18.017615   26.031892 H          1 MOL1         0.0750
       6    H2      20.077481   17.826352   27.404248 H          1 MOL1         0.0750
       7    C3      21.121616   17.874510   25.494078 C.3        1 MOL1        -0.1860
       8    H3      22.081614   18.134297   25.961243 H          1 MOL1         0.0752
       9    H4      21.107891   16.779650   25.407952 H          1 MOL1         0.0752
      10    C4      21.071021   18.498713   24.077984 C.3        1 MOL1        -0.1858
      11    H5      21.957060   18.168524   23.519019 H          1 MOL1         0.0752
      12    H6      21.144730   19.591103   24.160596 H          1 MOL1         0.0752
      13    C5      19.799123   18.113693   23.283886 C.3        1 MOL1        -0.1858
      14    H7      19.667593   17.023922   23.323347 H          1 MOL1         0.0752
      15    H8      18.913114   18.554614   23.760017 H          1 MOL1         0.0752
      16    C6      19.846335   18.550545   21.800340 C.3        1 MOL1        -0.1858
      17    H9      18.963418   18.143271   21.289088 H          1 MOL1         0.0752
      18    H10     20.722425   18.102625   21.311849 H          1 MOL1         0.0752
      19    C7      19.872401   20.084365   21.612932 C.3        1 MOL1        -0.1834
      20    H11     19.026173   20.537097   22.148163 H          1 MOL1         0.0752
      21    H12     20.788091   20.502868   22.050965 H          1 MOL1         0.0752
      22    C8      19.804854   20.473913   20.122377 C.3        1 MOL1        -0.2849
      23    H13     19.827623   21.565285   20.006541 H          1 MOL1         0.0764
      24    H14     20.656004   20.056326   19.568752 H          1 MOL1         0.0764
      25    H15     18.880238   20.103525   19.660629 H          1 MOL1         0.0764
@<TRIPOS>BOND
    1     1     2    1
    2     1     3    2
    3     1     4    1
    4     4     5    1
    5     4     6    1
    6     4     7    1
    7     7     8    1
    8     7     9    1
    9     7    10    1
   10    10    11    1
   11    10    12    1
   12    10    13    1
   13    13    14    1
   14    13    15    1
   15    13    16    1
   16    16    17    1
   17    16    18    1
   18    16    19    1
   19    19    20    1
   20    19    21    1
   21    19    22    1
   22    22    23    1
   23    22    24    1
   24    22    25    1
@<TRIPOS>SUBSTRUCTURE
       1 MOL1            1 RESIDUE      1      MOL     
@<SCITEGIC>MOL_PROPERTY
VM2 Rank
SciTegic.value.IntegerValue
75

@<SCITEGIC>MOL_PROPERTY
Conf_Id
SciTegic.value.IntegerValue
269

@<SCITEGIC>MOL_PROPERTY
Probability
SciTegic.value.DoubleValue
0.05

@<SCITEGIC>MOL_PROPERTY
Sum Probability
SciTegic.value.DoubleValue
99.04

@<SCITEGIC>MOL_PROPERTY
Delta G
SciTegic.value.DoubleValue
3.665

@<SCITEGIC>MOL_PROPERTY
G
SciTegic.value.DoubleValue
-4.298

@<SCITEGIC>MOL_PROPERTY
E
SciTegic.value.DoubleValue
-29.296

@<SCITEGIC>MOL_PROPERTY
-TS
SciTegic.value.DoubleValue
24.998

@<SCITEGIC>MOL_PROPERTY
U+W
SciTegic.value.DoubleValue
-49.863

@<SCITEGIC>MOL_PROPERTY
U
SciTegic.value.DoubleValue
10.631

@<SCITEGIC>MOL_PROPERTY
W
SciTegic.value.DoubleValue
-60.495

@<SCITEGIC>MOL_PROPERTY
W(PB)
SciTegic.value.DoubleValue
-62.928

@<SCITEGIC>MOL_PROPERTY
W(SA)
SciTegic.value.DoubleValue
2.433

@<SCITEGIC>MOL_PROPERTY
Valence
SciTegic.value.DoubleValue
8.788

@<SCITEGIC>MOL_PROPERTY
Coulomb
SciTegic.value.DoubleValue
1.197

@<SCITEGIC>MOL_PROPERTY
VdW
SciTegic.value.DoubleValue
0.647

@<SCITEGIC>MOL_PROPERTY
VdW6
SciTegic.value.DoubleValue
-10.379

@<SCITEGIC>MOL_PROPERTY
VdW12
SciTegic.value.DoubleValue
11.026

@<SCITEGIC>MOL_PROPERTY
Bond
SciTegic.value.DoubleValue
0.219

@<SCITEGIC>MOL_PROPERTY
Angle
SciTegic.value.DoubleValue
2.957

@<SCITEGIC>MOL_PROPERTY
Pdih
SciTegic.value.DoubleValue
5.611

@<SCITEGIC>MOL_PROPERTY
Idih
SciTegic.value.DoubleValue
0.001

@<SCITEGIC>MOL_PROPERTY
Tether
SciTegic.value.DoubleValue
0.000

@<TRIPOS>MOLECULE
guest-8_vm2.mol2 : vm2 ligand conformer 76
          25          24           1
SMALL
USER_CHARGES
 
@<TRIPOS>ATOM
       1    C1      19.900645   19.836925   26.652058 C.2        1 MOL1         0.6168
       2    O1      20.883096   20.504715   26.909917 O.co2      1 MOL1        -0.6703
       3    O2      18.800660   20.312629   26.449677 O.co2      1 MOL1        -0.6703
       4    C2      20.038918   18.315663   26.647208 C.3        1 MOL1        -0.1963
       5    H1      19.057023   17.869064   26.449162 H          1 MOL1         0.0750
       6    H2      20.313996   18.028162   27.668551 H          1 MOL1         0.0750
       7    C3      21.097519   17.748930   25.659644 C.3        1 MOL1        -0.1860
       8    H3      22.020663   18.342107   25.719159 H          1 MOL1         0.0752
       9    H4      21.366403   16.737925   25.994305 H          1 MOL1         0.0752
      10    C4      20.624945   17.648413   24.188028 C.3        1 MOL1        -0.1858
      11    H5      19.708730   17.044671   24.134339 H          1 MOL1         0.0752
      12    H6      21.389254   17.100337   23.620201 H          1 MOL1         0.0752
      13    C5      20.386456   19.015593   23.507903 C.3        1 MOL1        -0.1858
      14    H7      19.535967   19.523376   23.979953 H          1 MOL1         0.0752
      15    H8      21.265860   19.658044   23.652653 H          1 MOL1         0.0752
      16    C6      20.101515   18.860568   21.998151 C.3        1 MOL1        -0.1858
      17    H9      19.224835   18.213999   21.855282 H          1 MOL1         0.0752
      18    H10     20.950754   18.360343   21.512833 H          1 MOL1         0.0752
      19    C7      19.851975   20.224254   21.320310 C.3        1 MOL1        -0.1834
      20    H11     19.001836   20.726976   21.802121 H          1 MOL1         0.0752
      21    H12     20.727527   20.873202   21.460790 H          1 MOL1         0.0752
      22    C8      19.567272   20.066310   19.813104 C.3        1 MOL1        -0.2849
      23    H13     18.676734   19.446733   19.644461 H          1 MOL1         0.0764
      24    H14     19.392268   21.045047   19.347794 H          1 MOL1         0.0764
      25    H15     20.415594   19.594119   19.300504 H          1 MOL1         0.0764
@<TRIPOS>BOND
    1     1     2    1
    2     1     3    2
    3     1     4    1
    4     4     5    1
    5     4     6    1
    6     4     7    1
    7     7     8    1
    8     7     9    1
    9     7    10    1
   10    10    11    1
   11    10    12    1
   12    10    13    1
   13    13    14    1
   14    13    15    1
   15    13    16    1
   16    16    17    1
   17    16    18    1
   18    16    19    1
   19    19    20    1
   20    19    21    1
   21    19    22    1
   22    22    23    1
   23    22    24    1
   24    22    25    1
@<TRIPOS>SUBSTRUCTURE
       1 MOL1            1 RESIDUE      1      MOL     
@<SCITEGIC>MOL_PROPERTY
VM2 Rank
SciTegic.value.IntegerValue
76

@<SCITEGIC>MOL_PROPERTY
Conf_Id
SciTegic.value.IntegerValue
431

@<SCITEGIC>MOL_PROPERTY
Probability
SciTegic.value.DoubleValue
0.05

@<SCITEGIC>MOL_PROPERTY
Sum Probability
SciTegic.value.DoubleValue
99.08

@<SCITEGIC>MOL_PROPERTY
Delta G
SciTegic.value.DoubleValue
3.691

@<SCITEGIC>MOL_PROPERTY
G
SciTegic.value.DoubleValue
-4.272

@<SCITEGIC>MOL_PROPERTY
E
SciTegic.value.DoubleValue
-29.298

@<SCITEGIC>MOL_PROPERTY
-TS
SciTegic.value.DoubleValue
25.027

@<SCITEGIC>MOL_PROPERTY
U+W
SciTegic.value.DoubleValue
-49.866

@<SCITEGIC>MOL_PROPERTY
U
SciTegic.value.DoubleValue
10.902

@<SCITEGIC>MOL_PROPERTY
W
SciTegic.value.DoubleValue
-60.768

@<SCITEGIC>MOL_PROPERTY
W(PB)
SciTegic.value.DoubleValue
-63.222

@<SCITEGIC>MOL_PROPERTY
W(SA)
SciTegic.value.DoubleValue
2.454

@<SCITEGIC>MOL_PROPERTY
Valence
SciTegic.value.DoubleValue
9.445

@<SCITEGIC>MOL_PROPERTY
Coulomb
SciTegic.value.DoubleValue
0.778

@<SCITEGIC>MOL_PROPERTY
VdW
SciTegic.value.DoubleValue
0.679

@<SCITEGIC>MOL_PROPERTY
VdW6
SciTegic.value.DoubleValue
-10.007

@<SCITEGIC>MOL_PROPERTY
VdW12
SciTegic.value.DoubleValue
10.686

@<SCITEGIC>MOL_PROPERTY
Bond
SciTegic.value.DoubleValue
0.201

@<SCITEGIC>MOL_PROPERTY
Angle
SciTegic.value.DoubleValue
3.198

@<SCITEGIC>MOL_PROPERTY
Pdih
SciTegic.value.DoubleValue
6.039

@<SCITEGIC>MOL_PROPERTY
Idih
SciTegic.value.DoubleValue
0.006

@<SCITEGIC>MOL_PROPERTY
Tether
SciTegic.value.DoubleValue
0.000

@<TRIPOS>MOLECULE
guest-8_vm2.mol2 : vm2 ligand conformer 77
          25          24           1
SMALL
USER_CHARGES
 
@<TRIPOS>ATOM
       1    C1      20.637683   19.669066   26.642593 C.2        1 MOL1         0.6168
       2    O1      20.047748   20.694938   26.920459 O.co2      1 MOL1        -0.6703
       3    O2      21.829835   19.622839   26.410530 O.co2      1 MOL1        -0.6703
       4    C2      19.854389   18.357656   26.649554 C.3        1 MOL1        -0.1963
       5    H1      19.507162   18.211787   27.678934 H          1 MOL1         0.0750
       6    H2      20.540972   17.531137   26.429872 H          1 MOL1         0.0750
       7    C3      18.630863   18.310663   25.691493 C.3        1 MOL1        -0.1860
       8    H3      17.959084   17.513879   26.038302 H          1 MOL1         0.0752
       9    H4      18.057312   19.244693   25.770368 H          1 MOL1         0.0752
      10    C4      18.976997   18.023719   24.209287 C.3        1 MOL1        -0.1858
      11    H5      18.037028   17.863994   23.663457 H          1 MOL1         0.0752
      12    H6      19.539683   17.083021   24.136437 H          1 MOL1         0.0752
      13    C5      19.767362   19.156525   23.515961 C.3        1 MOL1        -0.1858
      14    H7      19.256928   20.115679   23.678839 H          1 MOL1         0.0752
      15    H8      20.765218   19.243051   23.964072 H          1 MOL1         0.0752
      16    C6      19.919729   18.902024   22.000514 C.3        1 MOL1        -0.1858
      17    H9      18.925939   18.821947   21.539063 H          1 MOL1         0.0752
      18    H10     20.425886   17.940283   21.839606 H          1 MOL1         0.0752
      19    C7      20.718717   20.026807   21.309244 C.3        1 MOL1        -0.1834
      20    H11     20.214555   20.990220   21.467722 H          1 MOL1         0.0752
      21    H12     21.714307   20.108762   21.767165 H          1 MOL1         0.0752
      22    C8      20.869678   19.769764   19.796364 C.3        1 MOL1        -0.2849
      23    H13     19.888198   19.714717   19.307449 H          1 MOL1         0.0764
      24    H14     21.439969   20.578683   19.321515 H          1 MOL1         0.0764
      25    H15     21.399376   18.826489   19.609207 H          1 MOL1         0.0764
@<TRIPOS>BOND
    1     1     2    1
    2     1     3    2
    3     1     4    1
    4     4     5    1
    5     4     6    1
    6     4     7    1
    7     7     8    1
    8     7     9    1
    9     7    10    1
   10    10    11    1
   11    10    12    1
   12    10    13    1
   13    13    14    1
   14    13    15    1
   15    13    16    1
   16    16    17    1
   17    16    18    1
   18    16    19    1
   19    19    20    1
   20    19    21    1
   21    19    22    1
   22    22    23    1
   23    22    24    1
   24    22    25    1
@<TRIPOS>SUBSTRUCTURE
       1 MOL1            1 RESIDUE      1      MOL     
@<SCITEGIC>MOL_PROPERTY
VM2 Rank
SciTegic.value.IntegerValue
77

@<SCITEGIC>MOL_PROPERTY
Conf_Id
SciTegic.value.IntegerValue
495

@<SCITEGIC>MOL_PROPERTY
Probability
SciTegic.value.DoubleValue
0.05

@<SCITEGIC>MOL_PROPERTY
Sum Probability
SciTegic.value.DoubleValue
99.13

@<SCITEGIC>MOL_PROPERTY
Delta G
SciTegic.value.DoubleValue
3.709

@<SCITEGIC>MOL_PROPERTY
G
SciTegic.value.DoubleValue
-4.253

@<SCITEGIC>MOL_PROPERTY
E
SciTegic.value.DoubleValue
-29.279

@<SCITEGIC>MOL_PROPERTY
-TS
SciTegic.value.DoubleValue
25.027

@<SCITEGIC>MOL_PROPERTY
U+W
SciTegic.value.DoubleValue
-49.847

@<SCITEGIC>MOL_PROPERTY
U
SciTegic.value.DoubleValue
10.903

@<SCITEGIC>MOL_PROPERTY
W
SciTegic.value.DoubleValue
-60.750

@<SCITEGIC>MOL_PROPERTY
W(PB)
SciTegic.value.DoubleValue
-63.220

@<SCITEGIC>MOL_PROPERTY
W(SA)
SciTegic.value.DoubleValue
2.469

@<SCITEGIC>MOL_PROPERTY
Valence
SciTegic.value.DoubleValue
9.445

@<SCITEGIC>MOL_PROPERTY
Coulomb
SciTegic.value.DoubleValue
0.779

@<SCITEGIC>MOL_PROPERTY
VdW
SciTegic.value.DoubleValue
0.679

@<SCITEGIC>MOL_PROPERTY
VdW6
SciTegic.value.DoubleValue
-10.008

@<SCITEGIC>MOL_PROPERTY
VdW12
SciTegic.value.DoubleValue
10.687

@<SCITEGIC>MOL_PROPERTY
Bond
SciTegic.value.DoubleValue
0.201

@<SCITEGIC>MOL_PROPERTY
Angle
SciTegic.value.DoubleValue
3.198

@<SCITEGIC>MOL_PROPERTY
Pdih
SciTegic.value.DoubleValue
6.039

@<SCITEGIC>MOL_PROPERTY
Idih
SciTegic.value.DoubleValue
0.006

@<SCITEGIC>MOL_PROPERTY
Tether
SciTegic.value.DoubleValue
0.000

@<TRIPOS>MOLECULE
guest-8_vm2.mol2 : vm2 ligand conformer 78
          25          24           1
SMALL
USER_CHARGES
 
@<TRIPOS>ATOM
       1    C1      20.271956   19.968284   26.978143 C.2        1 MOL1         0.6168
       2    O1      21.202518   19.812900   27.744091 O.co2      1 MOL1        -0.6703
       3    O2      19.231777   20.516386   27.285323 O.co2      1 MOL1        -0.6703
       4    C2      20.408039   19.423975   25.560746 C.3        1 MOL1        -0.1963
       5    H1      21.465397   19.476731   25.275368 H          1 MOL1         0.0750
       6    H2      19.851742   20.092906   24.894582 H          1 MOL1         0.0750
       7    C3      19.886981   17.971099   25.423417 C.3        1 MOL1        -0.1860
       8    H3      20.363257   17.351817   26.196131 H          1 MOL1         0.0752
       9    H4      18.809150   17.952381   25.636015 H          1 MOL1         0.0752
      10    C4      20.154925   17.324171   24.041191 C.3        1 MOL1        -0.1858
      11    H5      19.785299   16.290439   24.082725 H          1 MOL1         0.0752
      12    H6      21.236385   17.247182   23.863745 H          1 MOL1         0.0752
      13    C5      19.464272   18.036251   22.850506 C.3        1 MOL1        -0.1858
      14    H7      19.140188   17.273481   22.129311 H          1 MOL1         0.0752
      15    H8      18.550520   18.541614   23.191980 H          1 MOL1         0.0752
      16    C6      20.388762   19.033511   22.112713 C.3        1 MOL1        -0.1858
      17    H9      21.267128   18.498343   21.726851 H          1 MOL1         0.0752
      18    H10     20.764736   19.793333   22.807823 H          1 MOL1         0.0752
      19    C7      19.659625   19.729383   20.944223 C.3        1 MOL1        -0.1834
      20    H11     19.290780   18.975124   20.235381 H          1 MOL1         0.0752
      21    H12     18.780162   20.267088   21.324827 H          1 MOL1         0.0752
      22    C8      20.584146   20.718041   20.205646 C.3        1 MOL1        -0.2849
      23    H13     21.457951   20.201240   19.787628 H          1 MOL1         0.0764
      24    H14     20.049745   21.203402   19.378672 H          1 MOL1         0.0764
      25    H15     20.942365   21.502882   20.884677 H          1 MOL1         0.0764
@<TRIPOS>BOND
    1     1     2    1
    2     1     3    2
    3     1     4    1
    4     4     5    1
    5     4     6    1
    6     4     7    1
    7     7     8    1
    8     7     9    1
    9     7    10    1
   10    10    11    1
   11    10    12    1
   12    10    13    1
   13    13    14    1
   14    13    15    1
   15    13    16    1
   16    16    17    1
   17    16    18    1
   18    16    19    1
   19    19    20    1
   20    19    21    1
   21    19    22    1
   22    22    23    1
   23    22    24    1
   24    22    25    1
@<TRIPOS>SUBSTRUCTURE
       1 MOL1            1 RESIDUE      1      MOL     
@<SCITEGIC>MOL_PROPERTY
VM2 Rank
SciTegic.value.IntegerValue
78

@<SCITEGIC>MOL_PROPERTY
Conf_Id
SciTegic.value.IntegerValue
936

@<SCITEGIC>MOL_PROPERTY
Probability
SciTegic.value.DoubleValue
0.05

@<SCITEGIC>MOL_PROPERTY
Sum Probability
SciTegic.value.DoubleValue
99.18

@<SCITEGIC>MOL_PROPERTY
Delta G
SciTegic.value.DoubleValue
3.723

@<SCITEGIC>MOL_PROPERTY
G
SciTegic.value.DoubleValue
-4.240

@<SCITEGIC>MOL_PROPERTY
E
SciTegic.value.DoubleValue
-29.021

@<SCITEGIC>MOL_PROPERTY
-TS
SciTegic.value.DoubleValue
24.782

@<SCITEGIC>MOL_PROPERTY
U+W
SciTegic.value.DoubleValue
-49.589

@<SCITEGIC>MOL_PROPERTY
U
SciTegic.value.DoubleValue
10.016

@<SCITEGIC>MOL_PROPERTY
W
SciTegic.value.DoubleValue
-59.605

@<SCITEGIC>MOL_PROPERTY
W(PB)
SciTegic.value.DoubleValue
-62.067

@<SCITEGIC>MOL_PROPERTY
W(SA)
SciTegic.value.DoubleValue
2.462

@<SCITEGIC>MOL_PROPERTY
Valence
SciTegic.value.DoubleValue
10.523

@<SCITEGIC>MOL_PROPERTY
Coulomb
SciTegic.value.DoubleValue
-1.441

@<SCITEGIC>MOL_PROPERTY
VdW
SciTegic.value.DoubleValue
0.934

@<SCITEGIC>MOL_PROPERTY
VdW6
SciTegic.value.DoubleValue
-9.399

@<SCITEGIC>MOL_PROPERTY
VdW12
SciTegic.value.DoubleValue
10.333

@<SCITEGIC>MOL_PROPERTY
Bond
SciTegic.value.DoubleValue
0.199

@<SCITEGIC>MOL_PROPERTY
Angle
SciTegic.value.DoubleValue
2.988

@<SCITEGIC>MOL_PROPERTY
Pdih
SciTegic.value.DoubleValue
7.335

@<SCITEGIC>MOL_PROPERTY
Idih
SciTegic.value.DoubleValue
0.001

@<SCITEGIC>MOL_PROPERTY
Tether
SciTegic.value.DoubleValue
0.000

@<TRIPOS>MOLECULE
guest-8_vm2.mol2 : vm2 ligand conformer 79
          25          24           1
SMALL
USER_CHARGES
 
@<TRIPOS>ATOM
       1    C1      20.392998   19.481289   27.136472 C.2        1 MOL1         0.6168
       2    O1      21.428972   20.116011   27.162221 O.co2      1 MOL1        -0.6703
       3    O2      20.001821   18.793886   28.059164 O.co2      1 MOL1        -0.6703
       4    C2      19.547275   19.533711   25.869270 C.3        1 MOL1        -0.1963
       5    H1      19.671619   20.528292   25.426256 H          1 MOL1         0.0750
       6    H2      18.494130   19.434455   26.157704 H          1 MOL1         0.0750
       7    C3      19.928592   18.431227   24.847771 C.3        1 MOL1        -0.1860
       8    H3      20.976289   18.558317   24.544584 H          1 MOL1         0.0752
       9    H4      19.872780   17.453687   25.346148 H          1 MOL1         0.0752
      10    C4      19.012037   18.402002   23.598883 C.3        1 MOL1        -0.1858
      11    H5      17.984366   18.181633   23.917898 H          1 MOL1         0.0752
      12    H6      19.310811   17.561888   22.958234 H          1 MOL1         0.0752
      13    C5      19.001085   19.706085   22.758639 C.3        1 MOL1        -0.1858
      14    H7      18.328369   19.567859   21.902232 H          1 MOL1         0.0752
      15    H8      18.553477   20.514732   23.350813 H          1 MOL1         0.0752
      16    C6      20.389455   20.172796   22.247092 C.3        1 MOL1        -0.1858
      17    H9      21.017181   20.449804   23.104319 H          1 MOL1         0.0752
      18    H10     20.256922   21.095164   21.665686 H          1 MOL1         0.0752
      19    C7      21.151565   19.141110   21.379307 C.3        1 MOL1        -0.1834
      20    H11     22.127550   19.565590   21.107014 H          1 MOL1         0.0752
      21    H12     21.365713   18.238241   21.966319 H          1 MOL1         0.0752
      22    C8      20.399199   18.755882   20.087182 C.3        1 MOL1        -0.2849
      23    H13     20.158157   19.646586   19.492644 H          1 MOL1         0.0764
      24    H14     21.014957   18.091352   19.467536 H          1 MOL1         0.0764
      25    H15     19.463864   18.228533   20.312875 H          1 MOL1         0.0764
@<TRIPOS>BOND
    1     1     2    1
    2     1     3    2
    3     1     4    1
    4     4     5    1
    5     4     6    1
    6     4     7    1
    7     7     8    1
    8     7     9    1
    9     7    10    1
   10    10    11    1
   11    10    12    1
   12    10    13    1
   13    13    14    1
   14    13    15    1
   15    13    16    1
   16    16    17    1
   17    16    18    1
   18    16    19    1
   19    19    20    1
   20    19    21    1
   21    19    22    1
   22    22    23    1
   23    22    24    1
   24    22    25    1
@<TRIPOS>SUBSTRUCTURE
       1 MOL1            1 RESIDUE      1      MOL     
@<SCITEGIC>MOL_PROPERTY
VM2 Rank
SciTegic.value.IntegerValue
79

@<SCITEGIC>MOL_PROPERTY
Conf_Id
SciTegic.value.IntegerValue
500

@<SCITEGIC>MOL_PROPERTY
Probability
SciTegic.value.DoubleValue
0.04

@<SCITEGIC>MOL_PROPERTY
Sum Probability
SciTegic.value.DoubleValue
99.22

@<SCITEGIC>MOL_PROPERTY
Delta G
SciTegic.value.DoubleValue
3.736

@<SCITEGIC>MOL_PROPERTY
G
SciTegic.value.DoubleValue
-4.226

@<SCITEGIC>MOL_PROPERTY
E
SciTegic.value.DoubleValue
-29.677

@<SCITEGIC>MOL_PROPERTY
-TS
SciTegic.value.DoubleValue
25.450

@<SCITEGIC>MOL_PROPERTY
U+W
SciTegic.value.DoubleValue
-50.244

@<SCITEGIC>MOL_PROPERTY
U
SciTegic.value.DoubleValue
9.324

@<SCITEGIC>MOL_PROPERTY
W
SciTegic.value.DoubleValue
-59.568

@<SCITEGIC>MOL_PROPERTY
W(PB)
SciTegic.value.DoubleValue
-61.965

@<SCITEGIC>MOL_PROPERTY
W(SA)
SciTegic.value.DoubleValue
2.397

@<SCITEGIC>MOL_PROPERTY
Valence
SciTegic.value.DoubleValue
9.360

@<SCITEGIC>MOL_PROPERTY
Coulomb
SciTegic.value.DoubleValue
-0.854

@<SCITEGIC>MOL_PROPERTY
VdW
SciTegic.value.DoubleValue
0.818

@<SCITEGIC>MOL_PROPERTY
VdW6
SciTegic.value.DoubleValue
-11.207

@<SCITEGIC>MOL_PROPERTY
VdW12
SciTegic.value.DoubleValue
12.025

@<SCITEGIC>MOL_PROPERTY
Bond
SciTegic.value.DoubleValue
0.279

@<SCITEGIC>MOL_PROPERTY
Angle
SciTegic.value.DoubleValue
3.545

@<SCITEGIC>MOL_PROPERTY
Pdih
SciTegic.value.DoubleValue
5.535

@<SCITEGIC>MOL_PROPERTY
Idih
SciTegic.value.DoubleValue
0.001

@<SCITEGIC>MOL_PROPERTY
Tether
SciTegic.value.DoubleValue
0.000

@<TRIPOS>MOLECULE
guest-8_vm2.mol2 : vm2 ligand conformer 80
          25          24           1
SMALL
USER_CHARGES
 
@<TRIPOS>ATOM
       1    C1      19.754297   18.823735   27.017392 C.2        1 MOL1         0.6168
       2    O1      20.505505   18.271785   27.797007 O.co2      1 MOL1        -0.6703
       3    O2      18.663401   19.259734   27.328193 O.co2      1 MOL1        -0.6703
       4    C2      20.216127   18.999686   25.575323 C.3        1 MOL1        -0.1963
       5    H1      19.329630   18.938517   24.934160 H          1 MOL1         0.0750
       6    H2      20.867820   18.155481   25.320672 H          1 MOL1         0.0750
       7    C3      20.958288   20.339879   25.342333 C.3        1 MOL1        -0.1860
       8    H3      20.265641   21.172886   25.525658 H          1 MOL1         0.0752
       9    H4      21.757345   20.434476   26.090661 H          1 MOL1         0.0752
      10    C4      21.585262   20.486439   23.932979 C.3        1 MOL1        -0.1858
      11    H5      22.352903   19.715665   23.779343 H          1 MOL1         0.0752
      12    H6      22.117750   21.447008   23.906264 H          1 MOL1         0.0752
      13    C5      20.564238   20.467993   22.767234 C.3        1 MOL1        -0.1858
      14    H7      19.590217   20.840216   23.113169 H          1 MOL1         0.0752
      15    H8      20.904051   21.172518   21.995778 H          1 MOL1         0.0752
      16    C6      20.407697   19.075572   22.111330 C.3        1 MOL1        -0.1858
      17    H9      20.103563   18.332589   22.857882 H          1 MOL1         0.0752
      18    H10     21.379603   18.746947   21.718619 H          1 MOL1         0.0752
      19    C7      19.374153   19.098007   20.965672 C.3        1 MOL1        -0.1834
      20    H11     18.399488   19.425534   21.353225 H          1 MOL1         0.0752
      21    H12     19.678505   19.831158   20.205888 H          1 MOL1         0.0752
      22    C8      19.224032   17.711170   20.308539 C.3        1 MOL1        -0.2849
      23    H13     18.888943   16.964160   21.040024 H          1 MOL1         0.0764
      24    H14     18.485796   17.745527   19.496828 H          1 MOL1         0.0764
      25    H15     20.178323   17.371993   19.884695 H          1 MOL1         0.0764
@<TRIPOS>BOND
    1     1     2    1
    2     1     3    2
    3     1     4    1
    4     4     5    1
    5     4     6    1
    6     4     7    1
    7     7     8    1
    8     7     9    1
    9     7    10    1
   10    10    11    1
   11    10    12    1
   12    10    13    1
   13    13    14    1
   14    13    15    1
   15    13    16    1
   16    16    17    1
   17    16    18    1
   18    16    19    1
   19    19    20    1
   20    19    21    1
   21    19    22    1
   22    22    23    1
   23    22    24    1
   24    22    25    1
@<TRIPOS>SUBSTRUCTURE
       1 MOL1            1 RESIDUE      1      MOL     
@<SCITEGIC>MOL_PROPERTY
VM2 Rank
SciTegic.value.IntegerValue
80

@<SCITEGIC>MOL_PROPERTY
Conf_Id
SciTegic.value.IntegerValue
614

@<SCITEGIC>MOL_PROPERTY
Probability
SciTegic.value.DoubleValue
0.04

@<SCITEGIC>MOL_PROPERTY
Sum Probability
SciTegic.value.DoubleValue
99.26

@<SCITEGIC>MOL_PROPERTY
Delta G
SciTegic.value.DoubleValue
3.762

@<SCITEGIC>MOL_PROPERTY
G
SciTegic.value.DoubleValue
-4.200

@<SCITEGIC>MOL_PROPERTY
E
SciTegic.value.DoubleValue
-28.981

@<SCITEGIC>MOL_PROPERTY
-TS
SciTegic.value.DoubleValue
24.781

@<SCITEGIC>MOL_PROPERTY
U+W
SciTegic.value.DoubleValue
-49.549

@<SCITEGIC>MOL_PROPERTY
U
SciTegic.value.DoubleValue
10.016

@<SCITEGIC>MOL_PROPERTY
W
SciTegic.value.DoubleValue
-59.565

@<SCITEGIC>MOL_PROPERTY
W(PB)
SciTegic.value.DoubleValue
-62.019

@<SCITEGIC>MOL_PROPERTY
W(SA)
SciTegic.value.DoubleValue
2.454

@<SCITEGIC>MOL_PROPERTY
Valence
SciTegic.value.DoubleValue
10.523

@<SCITEGIC>MOL_PROPERTY
Coulomb
SciTegic.value.DoubleValue
-1.441

@<SCITEGIC>MOL_PROPERTY
VdW
SciTegic.value.DoubleValue
0.934

@<SCITEGIC>MOL_PROPERTY
VdW6
SciTegic.value.DoubleValue
-9.398

@<SCITEGIC>MOL_PROPERTY
VdW12
SciTegic.value.DoubleValue
10.333

@<SCITEGIC>MOL_PROPERTY
Bond
SciTegic.value.DoubleValue
0.199

@<SCITEGIC>MOL_PROPERTY
Angle
SciTegic.value.DoubleValue
2.988

@<SCITEGIC>MOL_PROPERTY
Pdih
SciTegic.value.DoubleValue
7.334

@<SCITEGIC>MOL_PROPERTY
Idih
SciTegic.value.DoubleValue
0.001

@<SCITEGIC>MOL_PROPERTY
Tether
SciTegic.value.DoubleValue
0.000

@<TRIPOS>MOLECULE
guest-8_vm2.mol2 : vm2 ligand conformer 81
          25          24           1
SMALL
USER_CHARGES
 
@<TRIPOS>ATOM
       1    C1      20.369880   19.516964   27.135417 C.2        1 MOL1         0.6168
       2    O1      21.372179   20.203678   27.159771 O.co2      1 MOL1        -0.6703
       3    O2      19.559232   19.477177   28.039944 O.co2      1 MOL1        -0.6703
       4    C2      20.104228   18.673822   25.893507 C.3        1 MOL1        -0.1963
       5    H1      19.575157   17.765329   26.204772 H          1 MOL1         0.0750
       6    H2      21.073640   18.363599   25.487407 H          1 MOL1         0.0750
       7    C3      19.281215   19.430999   24.819420 C.3        1 MOL1        -0.1860
       8    H3      18.354015   19.799071   25.279747 H          1 MOL1         0.0752
       9    H4      19.833870   20.322514   24.494585 H          1 MOL1         0.0752
      10    C4      18.911506   18.557282   23.594439 C.3        1 MOL1        -0.1858
      11    H5      18.284215   19.147254   22.913315 H          1 MOL1         0.0752
      12    H6      18.281526   17.722776   23.930844 H          1 MOL1         0.0752
      13    C5      20.117990   17.981312   22.807406 C.3        1 MOL1        -0.1858
      14    H7      20.656885   17.266514   23.442693 H          1 MOL1         0.0752
      15    H8      19.738591   17.390130   21.963813 H          1 MOL1         0.0752
      16    C6      21.125293   19.036501   22.279213 C.3        1 MOL1        -0.1858
      17    H9      21.927162   18.515844   21.738580 H          1 MOL1         0.0752
      18    H10     21.612867   19.529967   23.130316 H          1 MOL1         0.0752
      19    C7      20.518859   20.118263   21.351707 C.3        1 MOL1        -0.1834
      20    H11     19.768126   20.705679   21.896647 H          1 MOL1         0.0752
      21    H12     21.312647   20.824084   21.071365 H          1 MOL1         0.0752
      22    C8      19.892618   19.538001   20.065177 C.3        1 MOL1        -0.2849
      23    H13     19.022858   18.909417   20.293841 H          1 MOL1         0.0764
      24    H14     19.554701   20.346240   19.403904 H          1 MOL1         0.0764
      25    H15     20.621430   18.930719   19.512935 H          1 MOL1         0.0764
@<TRIPOS>BOND
    1     1     2    1
    2     1     3    2
    3     1     4    1
    4     4     5    1
    5     4     6    1
    6     4     7    1
    7     7     8    1
    8     7     9    1
    9     7    10    1
   10    10    11    1
   11    10    12    1
   12    10    13    1
   13    13    14    1
   14    13    15    1
   15    13    16    1
   16    16    17    1
   17    16    18    1
   18    16    19    1
   19    19    20    1
   20    19    21    1
   21    19    22    1
   22    22    23    1
   23    22    24    1
   24    22    25    1
@<TRIPOS>SUBSTRUCTURE
       1 MOL1            1 RESIDUE      1      MOL     
@<SCITEGIC>MOL_PROPERTY
VM2 Rank
SciTegic.value.IntegerValue
81

@<SCITEGIC>MOL_PROPERTY
Conf_Id
SciTegic.value.IntegerValue
721

@<SCITEGIC>MOL_PROPERTY
Probability
SciTegic.value.DoubleValue
0.04

@<SCITEGIC>MOL_PROPERTY
Sum Probability
SciTegic.value.DoubleValue
99.31

@<SCITEGIC>MOL_PROPERTY
Delta G
SciTegic.value.DoubleValue
3.780

@<SCITEGIC>MOL_PROPERTY
G
SciTegic.value.DoubleValue
-4.182

@<SCITEGIC>MOL_PROPERTY
E
SciTegic.value.DoubleValue
-29.632

@<SCITEGIC>MOL_PROPERTY
-TS
SciTegic.value.DoubleValue
25.451

@<SCITEGIC>MOL_PROPERTY
U+W
SciTegic.value.DoubleValue
-50.200

@<SCITEGIC>MOL_PROPERTY
U
SciTegic.value.DoubleValue
9.324

@<SCITEGIC>MOL_PROPERTY
W
SciTegic.value.DoubleValue
-59.524

@<SCITEGIC>MOL_PROPERTY
W(PB)
SciTegic.value.DoubleValue
-61.904

@<SCITEGIC>MOL_PROPERTY
W(SA)
SciTegic.value.DoubleValue
2.381

@<SCITEGIC>MOL_PROPERTY
Valence
SciTegic.value.DoubleValue
9.360

@<SCITEGIC>MOL_PROPERTY
Coulomb
SciTegic.value.DoubleValue
-0.855

@<SCITEGIC>MOL_PROPERTY
VdW
SciTegic.value.DoubleValue
0.819

@<SCITEGIC>MOL_PROPERTY
VdW6
SciTegic.value.DoubleValue
-11.207

@<SCITEGIC>MOL_PROPERTY
VdW12
SciTegic.value.DoubleValue
12.026

@<SCITEGIC>MOL_PROPERTY
Bond
SciTegic.value.DoubleValue
0.279

@<SCITEGIC>MOL_PROPERTY
Angle
SciTegic.value.DoubleValue
3.545

@<SCITEGIC>MOL_PROPERTY
Pdih
SciTegic.value.DoubleValue
5.535

@<SCITEGIC>MOL_PROPERTY
Idih
SciTegic.value.DoubleValue
0.001

@<SCITEGIC>MOL_PROPERTY
Tether
SciTegic.value.DoubleValue
0.000

@<TRIPOS>MOLECULE
guest-8_vm2.mol2 : vm2 ligand conformer 82
          25          24           1
SMALL
USER_CHARGES
 
@<TRIPOS>ATOM
       1    C1      19.551391   19.158741   26.967014 C.2        1 MOL1         0.6168
       2    O1      20.043517   19.019637   28.069417 O.co2      1 MOL1        -0.6703
       3    O2      18.465428   19.668610   26.773898 O.co2      1 MOL1        -0.6703
       4    C2      20.350549   18.686778   25.757794 C.3        1 MOL1        -0.1963
       5    H1      19.639623   18.347597   24.998002 H          1 MOL1         0.0750
       6    H2      20.935949   17.810479   26.060597 H          1 MOL1         0.0750
       7    C3      21.290805   19.785177   25.194547 C.3        1 MOL1        -0.1860
       8    H3      20.714972   20.689276   24.952846 H          1 MOL1         0.0752
       9    H4      21.989954   20.072781   25.991992 H          1 MOL1         0.0752
      10    C4      22.107790   19.323431   23.961109 C.3        1 MOL1        -0.1858
      11    H5      22.282891   18.239736   24.004205 H          1 MOL1         0.0752
      12    H6      23.101655   19.788398   24.015761 H          1 MOL1         0.0752
      13    C5      21.488559   19.708051   22.593887 C.3        1 MOL1        -0.1858
      14    H7      21.411255   20.801622   22.523292 H          1 MOL1         0.0752
      15    H8      22.183597   19.396952   21.802062 H          1 MOL1         0.0752
      16    C6      20.104142   19.078262   22.322117 C.3        1 MOL1        -0.1858
      17    H9      19.370045   19.481045   23.032050 H          1 MOL1         0.0752
      18    H10     20.154530   17.993002   22.484250 H          1 MOL1         0.0752
      19    C7      19.618764   19.362911   20.885106 C.3        1 MOL1        -0.1834
      20    H11     19.571112   20.448038   20.718766 H          1 MOL1         0.0752
      21    H12     20.341945   18.960285   20.162414 H          1 MOL1         0.0752
      22    C8      18.232054   18.742403   20.621111 C.3        1 MOL1        -0.2849
      23    H13     18.258526   17.652485   20.750450 H          1 MOL1         0.0764
      24    H14     17.481350   19.151169   21.310150 H          1 MOL1         0.0764
      25    H15     17.902103   18.954249   19.595789 H          1 MOL1         0.0764
@<TRIPOS>BOND
    1     1     2    1
    2     1     3    2
    3     1     4    1
    4     4     5    1
    5     4     6    1
    6     4     7    1
    7     7     8    1
    8     7     9    1
    9     7    10    1
   10    10    11    1
   11    10    12    1
   12    10    13    1
   13    13    14    1
   14    13    15    1
   15    13    16    1
   16    16    17    1
   17    16    18    1
   18    16    19    1
   19    19    20    1
   20    19    21    1
   21    19    22    1
   22    22    23    1
   23    22    24    1
   24    22    25    1
@<TRIPOS>SUBSTRUCTURE
       1 MOL1            1 RESIDUE      1      MOL     
@<SCITEGIC>MOL_PROPERTY
VM2 Rank
SciTegic.value.IntegerValue
82

@<SCITEGIC>MOL_PROPERTY
Conf_Id
SciTegic.value.IntegerValue
1113

@<SCITEGIC>MOL_PROPERTY
Probability
SciTegic.value.DoubleValue
0.04

@<SCITEGIC>MOL_PROPERTY
Sum Probability
SciTegic.value.DoubleValue
99.34

@<SCITEGIC>MOL_PROPERTY
Delta G
SciTegic.value.DoubleValue
3.841

@<SCITEGIC>MOL_PROPERTY
G
SciTegic.value.DoubleValue
-4.121

@<SCITEGIC>MOL_PROPERTY
E
SciTegic.value.DoubleValue
-28.910

@<SCITEGIC>MOL_PROPERTY
-TS
SciTegic.value.DoubleValue
24.789

@<SCITEGIC>MOL_PROPERTY
U+W
SciTegic.value.DoubleValue
-49.478

@<SCITEGIC>MOL_PROPERTY
U
SciTegic.value.DoubleValue
10.344

@<SCITEGIC>MOL_PROPERTY
W
SciTegic.value.DoubleValue
-59.822

@<SCITEGIC>MOL_PROPERTY
W(PB)
SciTegic.value.DoubleValue
-62.262

@<SCITEGIC>MOL_PROPERTY
W(SA)
SciTegic.value.DoubleValue
2.440

@<SCITEGIC>MOL_PROPERTY
Valence
SciTegic.value.DoubleValue
10.527

@<SCITEGIC>MOL_PROPERTY
Coulomb
SciTegic.value.DoubleValue
-1.066

@<SCITEGIC>MOL_PROPERTY
VdW
SciTegic.value.DoubleValue
0.884

@<SCITEGIC>MOL_PROPERTY
VdW6
SciTegic.value.DoubleValue
-9.456

@<SCITEGIC>MOL_PROPERTY
VdW12
SciTegic.value.DoubleValue
10.339

@<SCITEGIC>MOL_PROPERTY
Bond
SciTegic.value.DoubleValue
0.207

@<SCITEGIC>MOL_PROPERTY
Angle
SciTegic.value.DoubleValue
3.009

@<SCITEGIC>MOL_PROPERTY
Pdih
SciTegic.value.DoubleValue
7.309

@<SCITEGIC>MOL_PROPERTY
Idih
SciTegic.value.DoubleValue
0.001

@<SCITEGIC>MOL_PROPERTY
Tether
SciTegic.value.DoubleValue
0.000

@<TRIPOS>MOLECULE
guest-8_vm2.mol2 : vm2 ligand conformer 83
          25          24           1
SMALL
USER_CHARGES
 
@<TRIPOS>ATOM
       1    C1      20.767394   19.235951   26.953140 C.2        1 MOL1         0.6168
       2    O1      21.775224   19.879189   26.736116 O.co2      1 MOL1        -0.6703
       3    O2      20.322295   19.036831   28.066275 O.co2      1 MOL1        -0.6703
       4    C2      20.007024   18.665056   25.761697 C.3        1 MOL1        -0.1963
       5    H1      19.544428   17.722034   26.076335 H          1 MOL1         0.0750
       6    H2      20.737630   18.417732   24.985302 H          1 MOL1         0.0750
       7    C3      18.922567   19.634790   25.221899 C.3        1 MOL1        -0.1860
       8    H3      18.211181   19.832693   26.035662 H          1 MOL1         0.0752
       9    H4      19.373595   20.604172   24.968376 H          1 MOL1         0.0752
      10    C4      18.142406   19.071587   24.006911 C.3        1 MOL1        -0.1858
      11    H5      17.099218   19.407136   24.085119 H          1 MOL1         0.0752
      12    H6      18.106875   17.974510   24.052432 H          1 MOL1         0.0752
      13    C5      18.676322   19.529479   22.626354 C.3        1 MOL1        -0.1858
      14    H7      18.008134   19.131827   21.850311 H          1 MOL1         0.0752
      15    H8      18.613042   20.623943   22.555623 H          1 MOL1         0.0752
      16    C6      20.122630   19.079453   22.321774 C.3        1 MOL1        -0.1858
      17    H9      20.213682   17.996778   22.483460 H          1 MOL1         0.0752
      18    H10     20.816080   19.572914   23.015141 H          1 MOL1         0.0752
      19    C7      20.534768   19.421068   20.874343 C.3        1 MOL1        -0.1834
      20    H11     19.851839   18.929098   20.167975 H          1 MOL1         0.0752
      21    H12     20.440891   20.503254   20.708504 H          1 MOL1         0.0752
      22    C8      21.982369   18.980596   20.577490 C.3        1 MOL1        -0.2849
      23    H13     22.691032   19.482075   21.249603 H          1 MOL1         0.0764
      24    H14     22.096992   17.896279   20.705822 H          1 MOL1         0.0764
      25    H15     22.259099   19.230967   19.545131 H          1 MOL1         0.0764
@<TRIPOS>BOND
    1     1     2    1
    2     1     3    2
    3     1     4    1
    4     4     5    1
    5     4     6    1
    6     4     7    1
    7     7     8    1
    8     7     9    1
    9     7    10    1
   10    10    11    1
   11    10    12    1
   12    10    13    1
   13    13    14    1
   14    13    15    1
   15    13    16    1
   16    16    17    1
   17    16    18    1
   18    16    19    1
   19    19    20    1
   20    19    21    1
   21    19    22    1
   22    22    23    1
   23    22    24    1
   24    22    25    1
@<TRIPOS>SUBSTRUCTURE
       1 MOL1            1 RESIDUE      1      MOL     
@<SCITEGIC>MOL_PROPERTY
VM2 Rank
SciTegic.value.IntegerValue
83

@<SCITEGIC>MOL_PROPERTY
Conf_Id
SciTegic.value.IntegerValue
1088

@<SCITEGIC>MOL_PROPERTY
Probability
SciTegic.value.DoubleValue
0.04

@<SCITEGIC>MOL_PROPERTY
Sum Probability
SciTegic.value.DoubleValue
99.38

@<SCITEGIC>MOL_PROPERTY
Delta G
SciTegic.value.DoubleValue
3.858

@<SCITEGIC>MOL_PROPERTY
G
SciTegic.value.DoubleValue
-4.104

@<SCITEGIC>MOL_PROPERTY
E
SciTegic.value.DoubleValue
-28.893

@<SCITEGIC>MOL_PROPERTY
-TS
SciTegic.value.DoubleValue
24.789

@<SCITEGIC>MOL_PROPERTY
U+W
SciTegic.value.DoubleValue
-49.460

@<SCITEGIC>MOL_PROPERTY
U
SciTegic.value.DoubleValue
10.344

@<SCITEGIC>MOL_PROPERTY
W
SciTegic.value.DoubleValue
-59.804

@<SCITEGIC>MOL_PROPERTY
W(PB)
SciTegic.value.DoubleValue
-62.244

@<SCITEGIC>MOL_PROPERTY
W(SA)
SciTegic.value.DoubleValue
2.440

@<SCITEGIC>MOL_PROPERTY
Valence
SciTegic.value.DoubleValue
10.527

@<SCITEGIC>MOL_PROPERTY
Coulomb
SciTegic.value.DoubleValue
-1.067

@<SCITEGIC>MOL_PROPERTY
VdW
SciTegic.value.DoubleValue
0.883

@<SCITEGIC>MOL_PROPERTY
VdW6
SciTegic.value.DoubleValue
-9.455

@<SCITEGIC>MOL_PROPERTY
VdW12
SciTegic.value.DoubleValue
10.339

@<SCITEGIC>MOL_PROPERTY
Bond
SciTegic.value.DoubleValue
0.207

@<SCITEGIC>MOL_PROPERTY
Angle
SciTegic.value.DoubleValue
3.010

@<SCITEGIC>MOL_PROPERTY
Pdih
SciTegic.value.DoubleValue
7.309

@<SCITEGIC>MOL_PROPERTY
Idih
SciTegic.value.DoubleValue
0.001

@<SCITEGIC>MOL_PROPERTY
Tether
SciTegic.value.DoubleValue
0.000

@<TRIPOS>MOLECULE
guest-8_vm2.mol2 : vm2 ligand conformer 84
          25          24           1
SMALL
USER_CHARGES
 
@<TRIPOS>ATOM
       1    C1      20.348209   19.821977   27.087723 C.2        1 MOL1         0.6168
       2    O1      21.474353   20.266060   27.193708 O.co2      1 MOL1        -0.6703
       3    O2      19.369763   20.341150   27.587525 O.co2      1 MOL1        -0.6703
       4    C2      20.149190   18.552778   26.266906 C.3        1 MOL1        -0.1963
       5    H1      19.319863   17.988043   26.709381 H          1 MOL1         0.0750
       6    H2      21.051152   17.937104   26.366857 H          1 MOL1         0.0750
       7    C3      19.863128   18.842504   24.772832 C.3        1 MOL1        -0.1860
       8    H3      18.961526   19.464863   24.689471 H          1 MOL1         0.0752
       9    H4      20.698609   19.423189   24.360208 H          1 MOL1         0.0752
      10    C4      19.677653   17.541359   23.960587 C.3        1 MOL1        -0.1858
      11    H5      18.923679   16.915146   24.456856 H          1 MOL1         0.0752
      12    H6      20.613505   16.966104   23.974377 H          1 MOL1         0.0752
      13    C5      19.233231   17.765002   22.493285 C.3        1 MOL1        -0.1858
      14    H7      19.085167   16.775853   22.038842 H          1 MOL1         0.0752
      15    H8      18.250182   18.254719   22.467567 H          1 MOL1         0.0752
      16    C6      20.247389   18.548794   21.621765 C.3        1 MOL1        -0.1858
      17    H9      20.235653   18.125348   20.608110 H          1 MOL1         0.0752
      18    H10     21.266872   18.400046   22.003091 H          1 MOL1         0.0752
      19    C7      19.926723   20.057775   21.515912 C.3        1 MOL1        -0.1834
      20    H11     18.926884   20.191231   21.080401 H          1 MOL1         0.0752
      21    H12     19.898952   20.517273   22.511289 H          1 MOL1         0.0752
      22    C8      20.963360   20.796602   20.645757 C.3        1 MOL1        -0.2849
      23    H13     20.987012   20.385579   19.628014 H          1 MOL1         0.0764
      24    H14     20.718099   21.864213   20.574584 H          1 MOL1         0.0764
      25    H15     21.969948   20.708061   21.075046 H          1 MOL1         0.0764
@<TRIPOS>BOND
    1     1     2    1
    2     1     3    2
    3     1     4    1
    4     4     5    1
    5     4     6    1
    6     4     7    1
    7     7     8    1
    8     7     9    1
    9     7    10    1
   10    10    11    1
   11    10    12    1
   12    10    13    1
   13    13    14    1
   14    13    15    1
   15    13    16    1
   16    16    17    1
   17    16    18    1
   18    16    19    1
   19    19    20    1
   20    19    21    1
   21    19    22    1
   22    22    23    1
   23    22    24    1
   24    22    25    1
@<TRIPOS>SUBSTRUCTURE
       1 MOL1            1 RESIDUE      1      MOL     
@<SCITEGIC>MOL_PROPERTY
VM2 Rank
SciTegic.value.IntegerValue
84

@<SCITEGIC>MOL_PROPERTY
Conf_Id
SciTegic.value.IntegerValue
273

@<SCITEGIC>MOL_PROPERTY
Probability
SciTegic.value.DoubleValue
0.04

@<SCITEGIC>MOL_PROPERTY
Sum Probability
SciTegic.value.DoubleValue
99.42

@<SCITEGIC>MOL_PROPERTY
Delta G
SciTegic.value.DoubleValue
3.862

@<SCITEGIC>MOL_PROPERTY
G
SciTegic.value.DoubleValue
-4.100

@<SCITEGIC>MOL_PROPERTY
E
SciTegic.value.DoubleValue
-28.882

@<SCITEGIC>MOL_PROPERTY
-TS
SciTegic.value.DoubleValue
24.782

@<SCITEGIC>MOL_PROPERTY
U+W
SciTegic.value.DoubleValue
-49.449

@<SCITEGIC>MOL_PROPERTY
U
SciTegic.value.DoubleValue
10.480

@<SCITEGIC>MOL_PROPERTY
W
SciTegic.value.DoubleValue
-59.930

@<SCITEGIC>MOL_PROPERTY
W(PB)
SciTegic.value.DoubleValue
-62.373

@<SCITEGIC>MOL_PROPERTY
W(SA)
SciTegic.value.DoubleValue
2.443

@<SCITEGIC>MOL_PROPERTY
Valence
SciTegic.value.DoubleValue
10.552

@<SCITEGIC>MOL_PROPERTY
Coulomb
SciTegic.value.DoubleValue
-0.995

@<SCITEGIC>MOL_PROPERTY
VdW
SciTegic.value.DoubleValue
0.923

@<SCITEGIC>MOL_PROPERTY
VdW6
SciTegic.value.DoubleValue
-9.371

@<SCITEGIC>MOL_PROPERTY
VdW12
SciTegic.value.DoubleValue
10.294

@<SCITEGIC>MOL_PROPERTY
Bond
SciTegic.value.DoubleValue
0.194

@<SCITEGIC>MOL_PROPERTY
Angle
SciTegic.value.DoubleValue
2.991

@<SCITEGIC>MOL_PROPERTY
Pdih
SciTegic.value.DoubleValue
7.366

@<SCITEGIC>MOL_PROPERTY
Idih
SciTegic.value.DoubleValue
0.001

@<SCITEGIC>MOL_PROPERTY
Tether
SciTegic.value.DoubleValue
0.000

@<TRIPOS>MOLECULE
guest-8_vm2.mol2 : vm2 ligand conformer 85
          25          24           1
SMALL
USER_CHARGES
 
@<TRIPOS>ATOM
       1    C1      19.742536   19.604687   27.188325 C.2        1 MOL1         0.6168
       2    O1      20.588434   19.959037   27.985569 O.co2      1 MOL1        -0.6703
       3    O2      18.615361   20.057546   27.156539 O.co2      1 MOL1        -0.6703
       4    C2      20.122980   18.547708   26.157692 C.3        1 MOL1        -0.1963
       5    H1      19.227313   17.958078   25.928145 H          1 MOL1         0.0750
       6    H2      20.849682   17.868125   26.618755 H          1 MOL1         0.0750
       7    C3      20.708024   19.156813   24.859807 C.3        1 MOL1        -0.1860
       8    H3      19.976442   19.851055   24.429063 H          1 MOL1         0.0752
       9    H4      21.596521   19.752901   25.109882 H          1 MOL1         0.0752
      10    C4      21.090316   18.063199   23.834432 C.3        1 MOL1        -0.1858
      11    H5      20.225728   17.420364   23.619467 H          1 MOL1         0.0752
      12    H6      21.847919   17.413490   24.293706 H          1 MOL1         0.0752
      13    C5      21.668227   18.635303   22.515156 C.3        1 MOL1        -0.1858
      14    H7      22.160495   19.599675   22.700995 H          1 MOL1         0.0752
      15    H8      22.460656   17.958499   22.167519 H          1 MOL1         0.0752
      16    C6      20.639251   18.776440   21.365227 C.3        1 MOL1        -0.1858
      17    H9      20.223588   17.788516   21.124263 H          1 MOL1         0.0752
      18    H10     21.172456   19.113472   20.465811 H          1 MOL1         0.0752
      19    C7      19.485502   19.759326   21.660970 C.3        1 MOL1        -0.1834
      20    H11     18.867231   19.372084   22.481432 H          1 MOL1         0.0752
      21    H12     19.894390   20.724934   21.988785 H          1 MOL1         0.0752
      22    C8      18.592371   19.973941   20.422284 C.3        1 MOL1        -0.2849
      23    H13     18.150264   19.026123   20.088342 H          1 MOL1         0.0764
      24    H14     17.773279   20.667751   20.651929 H          1 MOL1         0.0764
      25    H15     19.169778   20.395653   19.589183 H          1 MOL1         0.0764
@<TRIPOS>BOND
    1     1     2    1
    2     1     3    2
    3     1     4    1
    4     4     5    1
    5     4     6    1
    6     4     7    1
    7     7     8    1
    8     7     9    1
    9     7    10    1
   10    10    11    1
   11    10    12    1
   12    10    13    1
   13    13    14    1
   14    13    15    1
   15    13    16    1
   16    16    17    1
   17    16    18    1
   18    16    19    1
   19    19    20    1
   20    19    21    1
   21    19    22    1
   22    22    23    1
   23    22    24    1
   24    22    25    1
@<TRIPOS>SUBSTRUCTURE
       1 MOL1            1 RESIDUE      1      MOL     
@<SCITEGIC>MOL_PROPERTY
VM2 Rank
SciTegic.value.IntegerValue
85

@<SCITEGIC>MOL_PROPERTY
Conf_Id
SciTegic.value.IntegerValue
988

@<SCITEGIC>MOL_PROPERTY
Probability
SciTegic.value.DoubleValue
0.03

@<SCITEGIC>MOL_PROPERTY
Sum Probability
SciTegic.value.DoubleValue
99.45

@<SCITEGIC>MOL_PROPERTY
Delta G
SciTegic.value.DoubleValue
3.906

@<SCITEGIC>MOL_PROPERTY
G
SciTegic.value.DoubleValue
-4.056

@<SCITEGIC>MOL_PROPERTY
E
SciTegic.value.DoubleValue
-28.830

@<SCITEGIC>MOL_PROPERTY
-TS
SciTegic.value.DoubleValue
24.775

@<SCITEGIC>MOL_PROPERTY
U+W
SciTegic.value.DoubleValue
-49.398

@<SCITEGIC>MOL_PROPERTY
U
SciTegic.value.DoubleValue
10.175

@<SCITEGIC>MOL_PROPERTY
W
SciTegic.value.DoubleValue
-59.573

@<SCITEGIC>MOL_PROPERTY
W(PB)
SciTegic.value.DoubleValue
-62.030

@<SCITEGIC>MOL_PROPERTY
W(SA)
SciTegic.value.DoubleValue
2.457

@<SCITEGIC>MOL_PROPERTY
Valence
SciTegic.value.DoubleValue
10.554

@<SCITEGIC>MOL_PROPERTY
Coulomb
SciTegic.value.DoubleValue
-1.316

@<SCITEGIC>MOL_PROPERTY
VdW
SciTegic.value.DoubleValue
0.937

@<SCITEGIC>MOL_PROPERTY
VdW6
SciTegic.value.DoubleValue
-9.356

@<SCITEGIC>MOL_PROPERTY
VdW12
SciTegic.value.DoubleValue
10.292

@<SCITEGIC>MOL_PROPERTY
Bond
SciTegic.value.DoubleValue
0.194

@<SCITEGIC>MOL_PROPERTY
Angle
SciTegic.value.DoubleValue
2.996

@<SCITEGIC>MOL_PROPERTY
Pdih
SciTegic.value.DoubleValue
7.363

@<SCITEGIC>MOL_PROPERTY
Idih
SciTegic.value.DoubleValue
0.001

@<SCITEGIC>MOL_PROPERTY
Tether
SciTegic.value.DoubleValue
0.000

@<TRIPOS>MOLECULE
guest-8_vm2.mol2 : vm2 ligand conformer 86
          25          24           1
SMALL
USER_CHARGES
 
@<TRIPOS>ATOM
       1    C1      20.035975   19.048124   27.508436 C.2        1 MOL1         0.6168
       2    O1      21.080325   19.118370   28.125739 O.co2      1 MOL1        -0.6703
       3    O2      18.954283   19.338541   27.979882 O.co2      1 MOL1        -0.6703
       4    C2      20.088320   18.590755   26.055120 C.3        1 MOL1        -0.1963
       5    H1      19.158470   18.053326   25.833442 H          1 MOL1         0.0750
       6    H2      20.910354   17.872077   25.953443 H          1 MOL1         0.0750
       7    C3      20.277787   19.763537   25.061762 C.3        1 MOL1        -0.1860
       8    H3      19.453938   20.480274   25.184651 H          1 MOL1         0.0752
       9    H4      21.205851   20.298927   25.305778 H          1 MOL1         0.0752
      10    C4      20.327336   19.273989   23.598100 C.3        1 MOL1        -0.1858
      11    H5      19.397694   18.737088   23.369644 H          1 MOL1         0.0752
      12    H6      21.154471   18.561460   23.475989 H          1 MOL1         0.0752
      13    C5      20.504241   20.446979   22.608591 C.3        1 MOL1        -0.1858
      14    H7      19.628523   21.107786   22.665814 H          1 MOL1         0.0752
      15    H8      21.366712   21.050902   22.922037 H          1 MOL1         0.0752
      16    C6      20.725853   20.012233   21.137911 C.3        1 MOL1        -0.1858
      17    H9      21.652032   19.427499   21.053230 H          1 MOL1         0.0752
      18    H10     20.893276   20.922813   20.546573 H          1 MOL1         0.0752
      19    C7      19.542798   19.237808   20.504827 C.3        1 MOL1        -0.1834
      20    H11     18.596621   19.533582   20.978650 H          1 MOL1         0.0752
      21    H12     19.458791   19.527852   19.448361 H          1 MOL1         0.0752
      22    C8      19.716082   17.703664   20.565632 C.3        1 MOL1        -0.2849
      23    H13     19.788536   17.341141   21.597218 H          1 MOL1         0.0764
      24    H14     18.861505   17.201942   20.093641 H          1 MOL1         0.0764
      25    H15     20.623980   17.392180   20.032948 H          1 MOL1         0.0764
@<TRIPOS>BOND
    1     1     2    1
    2     1     3    2
    3     1     4    1
    4     4     5    1
    5     4     6    1
    6     4     7    1
    7     7     8    1
    8     7     9    1
    9     7    10    1
   10    10    11    1
   11    10    12    1
   12    10    13    1
   13    13    14    1
   14    13    15    1
   15    13    16    1
   16    16    17    1
   17    16    18    1
   18    16    19    1
   19    19    20    1
   20    19    21    1
   21    19    22    1
   22    22    23    1
   23    22    24    1
   24    22    25    1
@<TRIPOS>SUBSTRUCTURE
       1 MOL1            1 RESIDUE      1      MOL     
@<SCITEGIC>MOL_PROPERTY
VM2 Rank
SciTegic.value.IntegerValue
86

@<SCITEGIC>MOL_PROPERTY
Conf_Id
SciTegic.value.IntegerValue
979

@<SCITEGIC>MOL_PROPERTY
Probability
SciTegic.value.DoubleValue
0.03

@<SCITEGIC>MOL_PROPERTY
Sum Probability
SciTegic.value.DoubleValue
99.48

@<SCITEGIC>MOL_PROPERTY
Delta G
SciTegic.value.DoubleValue
3.933

@<SCITEGIC>MOL_PROPERTY
G
SciTegic.value.DoubleValue
-4.029

@<SCITEGIC>MOL_PROPERTY
E
SciTegic.value.DoubleValue
-28.762

@<SCITEGIC>MOL_PROPERTY
-TS
SciTegic.value.DoubleValue
24.733

@<SCITEGIC>MOL_PROPERTY
U+W
SciTegic.value.DoubleValue
-49.329

@<SCITEGIC>MOL_PROPERTY
U
SciTegic.value.DoubleValue
9.708

@<SCITEGIC>MOL_PROPERTY
W
SciTegic.value.DoubleValue
-59.037

@<SCITEGIC>MOL_PROPERTY
W(PB)
SciTegic.value.DoubleValue
-61.493

@<SCITEGIC>MOL_PROPERTY
W(SA)
SciTegic.value.DoubleValue
2.456

@<SCITEGIC>MOL_PROPERTY
Valence
SciTegic.value.DoubleValue
10.529

@<SCITEGIC>MOL_PROPERTY
Coulomb
SciTegic.value.DoubleValue
-1.841

@<SCITEGIC>MOL_PROPERTY
VdW
SciTegic.value.DoubleValue
1.019

@<SCITEGIC>MOL_PROPERTY
VdW6
SciTegic.value.DoubleValue
-9.201

@<SCITEGIC>MOL_PROPERTY
VdW12
SciTegic.value.DoubleValue
10.221

@<SCITEGIC>MOL_PROPERTY
Bond
SciTegic.value.DoubleValue
0.191

@<SCITEGIC>MOL_PROPERTY
Angle
SciTegic.value.DoubleValue
3.009

@<SCITEGIC>MOL_PROPERTY
Pdih
SciTegic.value.DoubleValue
7.328

@<SCITEGIC>MOL_PROPERTY
Idih
SciTegic.value.DoubleValue
0.001

@<SCITEGIC>MOL_PROPERTY
Tether
SciTegic.value.DoubleValue
0.000

@<TRIPOS>MOLECULE
guest-8_vm2.mol2 : vm2 ligand conformer 87
          25          24           1
SMALL
USER_CHARGES
 
@<TRIPOS>ATOM
       1    C1      19.896269   19.194558   27.509640 C.2        1 MOL1         0.6168
       2    O1      20.861191   19.384852   28.223351 O.co2      1 MOL1        -0.6703
       3    O2      18.759399   19.489255   27.821621 O.co2      1 MOL1        -0.6703
       4    C2      20.127534   18.570948   26.137888 C.3        1 MOL1        -0.1963
       5    H1      19.245853   17.970417   25.883710 H          1 MOL1         0.0750
       6    H2      20.977534   17.882449   26.215528 H          1 MOL1         0.0750
       7    C3      20.392334   19.625064   25.034801 C.3        1 MOL1        -0.1860
       8    H3      19.538072   20.314014   24.978941 H          1 MOL1         0.0752
       9    H4      21.269848   20.226369   25.310296 H          1 MOL1         0.0752
      10    C4      20.621808   18.969120   23.655951 C.3        1 MOL1        -0.1858
      11    H5      19.747382   18.361961   23.393366 H          1 MOL1         0.0752
      12    H6      21.476178   18.281242   23.716673 H          1 MOL1         0.0752
      13    C5      20.891627   20.025680   22.558859 C.3        1 MOL1        -0.1858
      14    H7      20.071177   20.755192   22.520199 H          1 MOL1         0.0752
      15    H8      21.790379   20.590533   22.841884 H          1 MOL1         0.0752
      16    C6      21.120830   19.409216   21.155340 C.3        1 MOL1        -0.1858
      17    H9      21.549219   18.401767   21.246808 H          1 MOL1         0.0752
      18    H10     21.881057   20.010672   20.638454 H          1 MOL1         0.0752
      19    C7      19.863268   19.372487   20.251962 C.3        1 MOL1        -0.1834
      20    H11     19.493437   20.395012   20.094152 H          1 MOL1         0.0752
      21    H12     20.156073   18.995753   19.262260 H          1 MOL1         0.0752
      22    C8      18.718741   18.492821   20.796586 C.3        1 MOL1        -0.2849
      23    H13     18.285470   18.926384   21.706489 H          1 MOL1         0.0764
      24    H14     17.913645   18.408217   20.055359 H          1 MOL1         0.0764
      25    H15     19.075063   17.480452   21.027030 H          1 MOL1         0.0764
@<TRIPOS>BOND
    1     1     2    1
    2     1     3    2
    3     1     4    1
    4     4     5    1
    5     4     6    1
    6     4     7    1
    7     7     8    1
    8     7     9    1
    9     7    10    1
   10    10    11    1
   11    10    12    1
   12    10    13    1
   13    13    14    1
   14    13    15    1
   15    13    16    1
   16    16    17    1
   17    16    18    1
   18    16    19    1
   19    19    20    1
   20    19    21    1
   21    19    22    1
   22    22    23    1
   23    22    24    1
   24    22    25    1
@<TRIPOS>SUBSTRUCTURE
       1 MOL1            1 RESIDUE      1      MOL     
@<SCITEGIC>MOL_PROPERTY
VM2 Rank
SciTegic.value.IntegerValue
87

@<SCITEGIC>MOL_PROPERTY
Conf_Id
SciTegic.value.IntegerValue
394

@<SCITEGIC>MOL_PROPERTY
Probability
SciTegic.value.DoubleValue
0.03

@<SCITEGIC>MOL_PROPERTY
Sum Probability
SciTegic.value.DoubleValue
99.51

@<SCITEGIC>MOL_PROPERTY
Delta G
SciTegic.value.DoubleValue
3.936

@<SCITEGIC>MOL_PROPERTY
G
SciTegic.value.DoubleValue
-4.027

@<SCITEGIC>MOL_PROPERTY
E
SciTegic.value.DoubleValue
-28.762

@<SCITEGIC>MOL_PROPERTY
-TS
SciTegic.value.DoubleValue
24.736

@<SCITEGIC>MOL_PROPERTY
U+W
SciTegic.value.DoubleValue
-49.330

@<SCITEGIC>MOL_PROPERTY
U
SciTegic.value.DoubleValue
9.739

@<SCITEGIC>MOL_PROPERTY
W
SciTegic.value.DoubleValue
-59.069

@<SCITEGIC>MOL_PROPERTY
W(PB)
SciTegic.value.DoubleValue
-61.524

@<SCITEGIC>MOL_PROPERTY
W(SA)
SciTegic.value.DoubleValue
2.454

@<SCITEGIC>MOL_PROPERTY
Valence
SciTegic.value.DoubleValue
10.506

@<SCITEGIC>MOL_PROPERTY
Coulomb
SciTegic.value.DoubleValue
-1.761

@<SCITEGIC>MOL_PROPERTY
VdW
SciTegic.value.DoubleValue
0.994

@<SCITEGIC>MOL_PROPERTY
VdW6
SciTegic.value.DoubleValue
-9.209

@<SCITEGIC>MOL_PROPERTY
VdW12
SciTegic.value.DoubleValue
10.203

@<SCITEGIC>MOL_PROPERTY
Bond
SciTegic.value.DoubleValue
0.193

@<SCITEGIC>MOL_PROPERTY
Angle
SciTegic.value.DoubleValue
2.979

@<SCITEGIC>MOL_PROPERTY
Pdih
SciTegic.value.DoubleValue
7.334

@<SCITEGIC>MOL_PROPERTY
Idih
SciTegic.value.DoubleValue
0.001

@<SCITEGIC>MOL_PROPERTY
Tether
SciTegic.value.DoubleValue
0.000

@<TRIPOS>MOLECULE
guest-8_vm2.mol2 : vm2 ligand conformer 88
          25          24           1
SMALL
USER_CHARGES
 
@<TRIPOS>ATOM
       1    C1      20.526217   19.654827   27.179266 C.2        1 MOL1         0.6168
       2    O1      21.585441   20.247618   27.122174 O.co2      1 MOL1        -0.6703
       3    O2      19.660670   19.899620   27.996339 O.co2      1 MOL1        -0.6703
       4    C2      20.259934   18.556480   26.156095 C.3        1 MOL1        -0.1963
       5    H1      19.636542   17.790519   26.632747 H          1 MOL1         0.0750
       6    H2      21.217907   18.085442   25.905130 H          1 MOL1         0.0750
       7    C3      19.572343   19.084177   24.872917 C.3        1 MOL1        -0.1860
       8    H3      18.621154   19.562610   25.144258 H          1 MOL1         0.0752
       9    H4      20.199422   19.865308   24.426452 H          1 MOL1         0.0752
      10    C4      19.308939   17.949257   23.855021 C.3        1 MOL1        -0.1858
      11    H5      18.651004   17.209051   24.330665 H          1 MOL1         0.0752
      12    H6      20.243170   17.421433   23.619280 H          1 MOL1         0.0752
      13    C5      18.632670   18.441145   22.550229 C.3        1 MOL1        -0.1858
      14    H7      17.925135   17.668394   22.219912 H          1 MOL1         0.0752
      15    H8      18.025956   19.335213   22.748763 H          1 MOL1         0.0752
      16    C6      19.608552   18.710530   21.377139 C.3        1 MOL1        -0.1858
      17    H9      19.016207   18.975587   20.490730 H          1 MOL1         0.0752
      18    H10     20.141010   17.783249   21.125210 H          1 MOL1         0.0752
      19    C7      20.634213   19.832796   21.647702 C.3        1 MOL1        -0.1834
      20    H11     20.113323   20.738954   21.986232 H          1 MOL1         0.0752
      21    H12     21.315470   19.528672   22.453163 H          1 MOL1         0.0752
      22    C8      21.464021   20.157552   20.389116 C.3        1 MOL1        -0.2849
      23    H13     20.818613   20.501063   19.570128 H          1 MOL1         0.0764
      24    H14     22.193164   20.950353   20.600866 H          1 MOL1         0.0764
      25    H15     22.015422   19.273248   20.043722 H          1 MOL1         0.0764
@<TRIPOS>BOND
    1     1     2    1
    2     1     3    2
    3     1     4    1
    4     4     5    1
    5     4     6    1
    6     4     7    1
    7     7     8    1
    8     7     9    1
    9     7    10    1
   10    10    11    1
   11    10    12    1
   12    10    13    1
   13    13    14    1
   14    13    15    1
   15    13    16    1
   16    16    17    1
   17    16    18    1
   18    16    19    1
   19    19    20    1
   20    19    21    1
   21    19    22    1
   22    22    23    1
   23    22    24    1
   24    22    25    1
@<TRIPOS>SUBSTRUCTURE
       1 MOL1            1 RESIDUE      1      MOL     
@<SCITEGIC>MOL_PROPERTY
VM2 Rank
SciTegic.value.IntegerValue
88

@<SCITEGIC>MOL_PROPERTY
Conf_Id
SciTegic.value.IntegerValue
990

@<SCITEGIC>MOL_PROPERTY
Probability
SciTegic.value.DoubleValue
0.03

@<SCITEGIC>MOL_PROPERTY
Sum Probability
SciTegic.value.DoubleValue
99.55

@<SCITEGIC>MOL_PROPERTY
Delta G
SciTegic.value.DoubleValue
3.946

@<SCITEGIC>MOL_PROPERTY
G
SciTegic.value.DoubleValue
-4.017

@<SCITEGIC>MOL_PROPERTY
E
SciTegic.value.DoubleValue
-28.791

@<SCITEGIC>MOL_PROPERTY
-TS
SciTegic.value.DoubleValue
24.775

@<SCITEGIC>MOL_PROPERTY
U+W
SciTegic.value.DoubleValue
-49.359

@<SCITEGIC>MOL_PROPERTY
U
SciTegic.value.DoubleValue
10.175

@<SCITEGIC>MOL_PROPERTY
W
SciTegic.value.DoubleValue
-59.534

@<SCITEGIC>MOL_PROPERTY
W(PB)
SciTegic.value.DoubleValue
-62.003

@<SCITEGIC>MOL_PROPERTY
W(SA)
SciTegic.value.DoubleValue
2.470

@<SCITEGIC>MOL_PROPERTY
Valence
SciTegic.value.DoubleValue
10.554

@<SCITEGIC>MOL_PROPERTY
Coulomb
SciTegic.value.DoubleValue
-1.316

@<SCITEGIC>MOL_PROPERTY
VdW
SciTegic.value.DoubleValue
0.937

@<SCITEGIC>MOL_PROPERTY
VdW6
SciTegic.value.DoubleValue
-9.356

@<SCITEGIC>MOL_PROPERTY
VdW12
SciTegic.value.DoubleValue
10.292

@<SCITEGIC>MOL_PROPERTY
Bond
SciTegic.value.DoubleValue
0.194

@<SCITEGIC>MOL_PROPERTY
Angle
SciTegic.value.DoubleValue
2.996

@<SCITEGIC>MOL_PROPERTY
Pdih
SciTegic.value.DoubleValue
7.363

@<SCITEGIC>MOL_PROPERTY
Idih
SciTegic.value.DoubleValue
0.001

@<SCITEGIC>MOL_PROPERTY
Tether
SciTegic.value.DoubleValue
0.000

@<TRIPOS>MOLECULE
guest-8_vm2.mol2 : vm2 ligand conformer 89
          25          24           1
SMALL
USER_CHARGES
 
@<TRIPOS>ATOM
       1    C1      19.976406   18.790858   27.112327 C.2        1 MOL1         0.6168
       2    O1      20.562035   17.735618   27.254279 O.co2      1 MOL1        -0.6703
       3    O2      18.899080   19.036501   27.618021 O.co2      1 MOL1        -0.6703
       4    C2      20.620265   19.859225   26.235824 C.3        1 MOL1        -0.1963
       5    H1      21.709010   19.761587   26.323475 H          1 MOL1         0.0750
       6    H2      20.348593   20.841141   26.641443 H          1 MOL1         0.0750
       7    C3      20.192556   19.755924   24.751091 C.3        1 MOL1        -0.1860
       8    H3      20.459161   18.759041   24.376082 H          1 MOL1         0.0752
       9    H4      19.100084   19.848992   24.680282 H          1 MOL1         0.0752
      10    C4      20.867481   20.840508   23.882020 C.3        1 MOL1        -0.1858
      11    H5      21.955214   20.686387   23.885791 H          1 MOL1         0.0752
      12    H6      20.694010   21.823928   24.339945 H          1 MOL1         0.0752
      13    C5      20.360359   20.890249   22.418852 C.3        1 MOL1        -0.1858
      14    H7      19.290690   21.139800   22.398838 H          1 MOL1         0.0752
      15    H8      20.870534   21.726110   21.920939 H          1 MOL1         0.0752
      16    C6      20.627869   19.603853   21.596647 C.3        1 MOL1        -0.1858
      17    H9      21.513488   19.083904   21.986792 H          1 MOL1         0.0752
      18    H10     20.873539   19.894213   20.565978 H          1 MOL1         0.0752
      19    C7      19.416699   18.643691   21.549651 C.3        1 MOL1        -0.1834
      20    H11     19.117307   18.350068   22.562981 H          1 MOL1         0.0752
      21    H12     18.555144   19.160569   21.104993 H          1 MOL1         0.0752
      22    C8      19.730250   17.377572   20.727289 C.3        1 MOL1        -0.2849
      23    H13     20.568292   16.821622   21.167688 H          1 MOL1         0.0764
      24    H14     18.859261   16.710111   20.697523 H          1 MOL1         0.0764
      25    H15     19.995145   17.635605   19.693582 H          1 MOL1         0.0764
@<TRIPOS>BOND
    1     1     2    1
    2     1     3    2
    3     1     4    1
    4     4     5    1
    5     4     6    1
    6     4     7    1
    7     7     8    1
    8     7     9    1
    9     7    10    1
   10    10    11    1
   11    10    12    1
   12    10    13    1
   13    13    14    1
   14    13    15    1
   15    13    16    1
   16    16    17    1
   17    16    18    1
   18    16    19    1
   19    19    20    1
   20    19    21    1
   21    19    22    1
   22    22    23    1
   23    22    24    1
   24    22    25    1
@<TRIPOS>SUBSTRUCTURE
       1 MOL1            1 RESIDUE      1      MOL     
@<SCITEGIC>MOL_PROPERTY
VM2 Rank
SciTegic.value.IntegerValue
89

@<SCITEGIC>MOL_PROPERTY
Conf_Id
SciTegic.value.IntegerValue
36

@<SCITEGIC>MOL_PROPERTY
Probability
SciTegic.value.DoubleValue
0.03

@<SCITEGIC>MOL_PROPERTY
Sum Probability
SciTegic.value.DoubleValue
99.58

@<SCITEGIC>MOL_PROPERTY
Delta G
SciTegic.value.DoubleValue
3.947

@<SCITEGIC>MOL_PROPERTY
G
SciTegic.value.DoubleValue
-4.015

@<SCITEGIC>MOL_PROPERTY
E
SciTegic.value.DoubleValue
-28.797

@<SCITEGIC>MOL_PROPERTY
-TS
SciTegic.value.DoubleValue
24.782

@<SCITEGIC>MOL_PROPERTY
U+W
SciTegic.value.DoubleValue
-49.365

@<SCITEGIC>MOL_PROPERTY
U
SciTegic.value.DoubleValue
10.481

@<SCITEGIC>MOL_PROPERTY
W
SciTegic.value.DoubleValue
-59.846

@<SCITEGIC>MOL_PROPERTY
W(PB)
SciTegic.value.DoubleValue
-62.298

@<SCITEGIC>MOL_PROPERTY
W(SA)
SciTegic.value.DoubleValue
2.453

@<SCITEGIC>MOL_PROPERTY
Valence
SciTegic.value.DoubleValue
10.552

@<SCITEGIC>MOL_PROPERTY
Coulomb
SciTegic.value.DoubleValue
-0.994

@<SCITEGIC>MOL_PROPERTY
VdW
SciTegic.value.DoubleValue
0.923

@<SCITEGIC>MOL_PROPERTY
VdW6
SciTegic.value.DoubleValue
-9.371

@<SCITEGIC>MOL_PROPERTY
VdW12
SciTegic.value.DoubleValue
10.294

@<SCITEGIC>MOL_PROPERTY
Bond
SciTegic.value.DoubleValue
0.194

@<SCITEGIC>MOL_PROPERTY
Angle
SciTegic.value.DoubleValue
2.991

@<SCITEGIC>MOL_PROPERTY
Pdih
SciTegic.value.DoubleValue
7.366

@<SCITEGIC>MOL_PROPERTY
Idih
SciTegic.value.DoubleValue
0.000

@<SCITEGIC>MOL_PROPERTY
Tether
SciTegic.value.DoubleValue
0.000

@<TRIPOS>MOLECULE
guest-8_vm2.mol2 : vm2 ligand conformer 90
          25          24           1
SMALL
USER_CHARGES
 
@<TRIPOS>ATOM
       1    C1      20.433335   19.228721   27.503465 C.2        1 MOL1         0.6168
       2    O1      21.530444   19.665822   27.789721 O.co2      1 MOL1        -0.6703
       3    O2      19.468701   19.295958   28.239421 O.co2      1 MOL1        -0.6703
       4    C2      20.251703   18.578869   26.136430 C.3        1 MOL1        -0.1963
       5    H1      19.497991   17.788141   26.232496 H          1 MOL1         0.0750
       6    H2      21.196424   18.094772   25.861190 H          1 MOL1         0.0750
       7    C3      19.830004   19.589292   25.041305 C.3        1 MOL1        -0.1860
       8    H3      18.889875   20.074817   25.337814 H          1 MOL1         0.0752
       9    H4      20.588455   20.380963   24.966839 H          1 MOL1         0.0752
      10    C4      19.653927   18.907557   23.667118 C.3        1 MOL1        -0.1858
      11    H5      18.895343   18.116943   23.746451 H          1 MOL1         0.0752
      12    H6      20.592032   18.415850   23.383584 H          1 MOL1         0.0752
      13    C5      19.227095   19.919775   22.578096 C.3        1 MOL1        -0.1858
      14    H7      18.270729   20.366500   22.882591 H          1 MOL1         0.0752
      15    H8      19.947296   20.747387   22.521628 H          1 MOL1         0.0752
      16    C6      19.045638   19.277196   21.179311 C.3        1 MOL1        -0.1858
      17    H9      18.203623   19.776703   20.680941 H          1 MOL1         0.0752
      18    H10     18.750595   18.223714   21.279124 H          1 MOL1         0.0752
      19    C7      20.276587   19.398816   20.247172 C.3        1 MOL1        -0.1834
      20    H11     20.011160   18.986624   19.263902 H          1 MOL1         0.0752
      21    H12     20.510169   20.459730   20.082438 H          1 MOL1         0.0752
      22    C8      21.535566   18.671996   20.763962 C.3        1 MOL1        -0.2849
      23    H13     21.315747   17.622986   21.001072 H          1 MOL1         0.0764
      24    H14     22.327583   18.688961   20.004240 H          1 MOL1         0.0764
      25    H15     21.931302   19.158278   21.664266 H          1 MOL1         0.0764
@<TRIPOS>BOND
    1     1     2    1
    2     1     3    2
    3     1     4    1
    4     4     5    1
    5     4     6    1
    6     4     7    1
    7     7     8    1
    8     7     9    1
    9     7    10    1
   10    10    11    1
   11    10    12    1
   12    10    13    1
   13    13    14    1
   14    13    15    1
   15    13    16    1
   16    16    17    1
   17    16    18    1
   18    16    19    1
   19    19    20    1
   20    19    21    1
   21    19    22    1
   22    22    23    1
   23    22    24    1
   24    22    25    1
@<TRIPOS>SUBSTRUCTURE
       1 MOL1            1 RESIDUE      1      MOL     
@<SCITEGIC>MOL_PROPERTY
VM2 Rank
SciTegic.value.IntegerValue
90

@<SCITEGIC>MOL_PROPERTY
Conf_Id
SciTegic.value.IntegerValue
393

@<SCITEGIC>MOL_PROPERTY
Probability
SciTegic.value.DoubleValue
0.03

@<SCITEGIC>MOL_PROPERTY
Sum Probability
SciTegic.value.DoubleValue
99.61

@<SCITEGIC>MOL_PROPERTY
Delta G
SciTegic.value.DoubleValue
3.949

@<SCITEGIC>MOL_PROPERTY
G
SciTegic.value.DoubleValue
-4.013

@<SCITEGIC>MOL_PROPERTY
E
SciTegic.value.DoubleValue
-28.749

@<SCITEGIC>MOL_PROPERTY
-TS
SciTegic.value.DoubleValue
24.736

@<SCITEGIC>MOL_PROPERTY
U+W
SciTegic.value.DoubleValue
-49.316

@<SCITEGIC>MOL_PROPERTY
U
SciTegic.value.DoubleValue
9.739

@<SCITEGIC>MOL_PROPERTY
W
SciTegic.value.DoubleValue
-59.056

@<SCITEGIC>MOL_PROPERTY
W(PB)
SciTegic.value.DoubleValue
-61.487

@<SCITEGIC>MOL_PROPERTY
W(SA)
SciTegic.value.DoubleValue
2.432

@<SCITEGIC>MOL_PROPERTY
Valence
SciTegic.value.DoubleValue
10.506

@<SCITEGIC>MOL_PROPERTY
Coulomb
SciTegic.value.DoubleValue
-1.761

@<SCITEGIC>MOL_PROPERTY
VdW
SciTegic.value.DoubleValue
0.994

@<SCITEGIC>MOL_PROPERTY
VdW6
SciTegic.value.DoubleValue
-9.209

@<SCITEGIC>MOL_PROPERTY
VdW12
SciTegic.value.DoubleValue
10.203

@<SCITEGIC>MOL_PROPERTY
Bond
SciTegic.value.DoubleValue
0.193

@<SCITEGIC>MOL_PROPERTY
Angle
SciTegic.value.DoubleValue
2.980

@<SCITEGIC>MOL_PROPERTY
Pdih
SciTegic.value.DoubleValue
7.333

@<SCITEGIC>MOL_PROPERTY
Idih
SciTegic.value.DoubleValue
0.001

@<SCITEGIC>MOL_PROPERTY
Tether
SciTegic.value.DoubleValue
0.000

@<TRIPOS>MOLECULE
guest-8_vm2.mol2 : vm2 ligand conformer 91
          25          24           1
SMALL
USER_CHARGES
 
@<TRIPOS>ATOM
       1    C1      20.313256   19.065726   27.505238 C.2        1 MOL1         0.6168
       2    O1      21.359947   19.491498   27.952244 O.co2      1 MOL1        -0.6703
       3    O2      19.282827   19.003962   28.146384 O.co2      1 MOL1        -0.6703
       4    C2      20.286032   18.603353   26.052816 C.3        1 MOL1        -0.1963
       5    H1      19.559558   17.786180   25.968909 H          1 MOL1         0.0750
       6    H2      21.271155   18.187742   25.809114 H          1 MOL1         0.0750
       7    C3      19.926825   19.741271   25.065803 C.3        1 MOL1        -0.1860
       8    H3      18.944322   20.155240   25.331898 H          1 MOL1         0.0752
       9    H4      20.655934   20.556702   25.170743 H          1 MOL1         0.0752
      10    C4      19.905948   19.247253   23.602953 C.3        1 MOL1        -0.1858
      11    H5      19.173071   18.435574   23.498880 H          1 MOL1         0.0752
      12    H6      20.890563   18.832014   23.352353 H          1 MOL1         0.0752
      13    C5      19.559229   20.386964   22.619501 C.3        1 MOL1        -0.1858
      14    H7      18.634676   20.877282   22.953596 H          1 MOL1         0.0752
      15    H8      20.345318   21.153411   22.657528 H          1 MOL1         0.0752
      16    C6      19.360663   19.925507   21.153675 C.3        1 MOL1        -0.1858
      17    H9      19.065813   20.806708   20.567658 H          1 MOL1         0.0752
      18    H10     18.514218   19.228155   21.089465 H          1 MOL1         0.0752
      19    C7      20.617330   19.306060   20.492445 C.3        1 MOL1        -0.1834
      20    H11     20.639693   19.602886   19.434760 H          1 MOL1         0.0752
      21    H12     21.529119   19.719827   20.944863 H          1 MOL1         0.0752
      22    C8      20.640944   17.762407   20.554942 C.3        1 MOL1        -0.2849
      23    H13     19.767757   17.337815   20.042769 H          1 MOL1         0.0764
      24    H14     21.541066   17.372138   20.062728 H          1 MOL1         0.0764
      25    H15     20.638614   17.395116   21.587384 H          1 MOL1         0.0764
@<TRIPOS>BOND
    1     1     2    1
    2     1     3    2
    3     1     4    1
    4     4     5    1
    5     4     6    1
    6     4     7    1
    7     7     8    1
    8     7     9    1
    9     7    10    1
   10    10    11    1
   11    10    12    1
   12    10    13    1
   13    13    14    1
   14    13    15    1
   15    13    16    1
   16    16    17    1
   17    16    18    1
   18    16    19    1
   19    19    20    1
   20    19    21    1
   21    19    22    1
   22    22    23    1
   23    22    24    1
   24    22    25    1
@<TRIPOS>SUBSTRUCTURE
       1 MOL1            1 RESIDUE      1      MOL     
@<SCITEGIC>MOL_PROPERTY
VM2 Rank
SciTegic.value.IntegerValue
91

@<SCITEGIC>MOL_PROPERTY
Conf_Id
SciTegic.value.IntegerValue
1031

@<SCITEGIC>MOL_PROPERTY
Probability
SciTegic.value.DoubleValue
0.03

@<SCITEGIC>MOL_PROPERTY
Sum Probability
SciTegic.value.DoubleValue
99.64

@<SCITEGIC>MOL_PROPERTY
Delta G
SciTegic.value.DoubleValue
3.974

@<SCITEGIC>MOL_PROPERTY
G
SciTegic.value.DoubleValue
-3.989

@<SCITEGIC>MOL_PROPERTY
E
SciTegic.value.DoubleValue
-28.722

@<SCITEGIC>MOL_PROPERTY
-TS
SciTegic.value.DoubleValue
24.734

@<SCITEGIC>MOL_PROPERTY
U+W
SciTegic.value.DoubleValue
-49.290

@<SCITEGIC>MOL_PROPERTY
U
SciTegic.value.DoubleValue
9.707

@<SCITEGIC>MOL_PROPERTY
W
SciTegic.value.DoubleValue
-58.997

@<SCITEGIC>MOL_PROPERTY
W(PB)
SciTegic.value.DoubleValue
-61.445

@<SCITEGIC>MOL_PROPERTY
W(SA)
SciTegic.value.DoubleValue
2.448

@<SCITEGIC>MOL_PROPERTY
Valence
SciTegic.value.DoubleValue
10.529

@<SCITEGIC>MOL_PROPERTY
Coulomb
SciTegic.value.DoubleValue
-1.841

@<SCITEGIC>MOL_PROPERTY
VdW
SciTegic.value.DoubleValue
1.019

@<SCITEGIC>MOL_PROPERTY
VdW6
SciTegic.value.DoubleValue
-9.201

@<SCITEGIC>MOL_PROPERTY
VdW12
SciTegic.value.DoubleValue
10.221

@<SCITEGIC>MOL_PROPERTY
Bond
SciTegic.value.DoubleValue
0.191

@<SCITEGIC>MOL_PROPERTY
Angle
SciTegic.value.DoubleValue
3.009

@<SCITEGIC>MOL_PROPERTY
Pdih
SciTegic.value.DoubleValue
7.328

@<SCITEGIC>MOL_PROPERTY
Idih
SciTegic.value.DoubleValue
0.001

@<SCITEGIC>MOL_PROPERTY
Tether
SciTegic.value.DoubleValue
0.000

@<TRIPOS>MOLECULE
guest-8_vm2.mol2 : vm2 ligand conformer 92
          25          24           1
SMALL
USER_CHARGES
 
@<TRIPOS>ATOM
       1    C1      19.922780   19.368628   27.142454 C.2        1 MOL1         0.6168
       2    O1      20.892290   19.094915   27.822397 O.co2      1 MOL1        -0.6703
       3    O2      18.819800   18.890328   27.320690 O.co2      1 MOL1        -0.6703
       4    C2      20.097507   20.384666   26.017168 C.3        1 MOL1        -0.1963
       5    H1      20.665635   21.229253   26.424357 H          1 MOL1         0.0750
       6    H2      19.110040   20.771417   25.737642 H          1 MOL1         0.0750
       7    C3      20.826163   19.825232   24.767611 C.3        1 MOL1        -0.1860
       8    H3      21.037318   20.658880   24.085764 H          1 MOL1         0.0752
       9    H4      21.796564   19.406569   25.068076 H          1 MOL1         0.0752
      10    C4      19.996320   18.748243   24.028569 C.3        1 MOL1        -0.1858
      11    H5      19.038755   19.175390   23.703274 H          1 MOL1         0.0752
      12    H6      19.744774   17.941851   24.730810 H          1 MOL1         0.0752
      13    C5      20.734579   18.123200   22.818211 C.3        1 MOL1        -0.1858
      14    H7      21.643001   17.621770   23.178488 H          1 MOL1         0.0752
      15    H8      20.106952   17.329427   22.392336 H          1 MOL1         0.0752
      16    C6      21.130616   19.118336   21.695353 C.3        1 MOL1        -0.1858
      17    H9      21.623265   18.557783   20.889397 H          1 MOL1         0.0752
      18    H10     21.888563   19.814654   22.077197 H          1 MOL1         0.0752
      19    C7      19.959349   19.932252   21.092202 C.3        1 MOL1        -0.1834
      20    H11     19.505811   20.569536   21.862873 H          1 MOL1         0.0752
      21    H12     20.362282   20.615049   20.331718 H          1 MOL1         0.0752
      22    C8      18.873596   19.048199   20.441344 C.3        1 MOL1        -0.2849
      23    H13     18.110228   19.670785   19.957216 H          1 MOL1         0.0764
      24    H14     19.308488   18.390259   19.677854 H          1 MOL1         0.0764
      25    H15     18.368651   18.422748   21.188216 H          1 MOL1         0.0764
@<TRIPOS>BOND
    1     1     2    1
    2     1     3    2
    3     1     4    1
    4     4     5    1
    5     4     6    1
    6     4     7    1
    7     7     8    1
    8     7     9    1
    9     7    10    1
   10    10    11    1
   11    10    12    1
   12    10    13    1
   13    13    14    1
   14    13    15    1
   15    13    16    1
   16    16    17    1
   17    16    18    1
   18    16    19    1
   19    19    20    1
   20    19    21    1
   21    19    22    1
   22    22    23    1
   23    22    24    1
   24    22    25    1
@<TRIPOS>SUBSTRUCTURE
       1 MOL1            1 RESIDUE      1      MOL     
@<SCITEGIC>MOL_PROPERTY
VM2 Rank
SciTegic.value.IntegerValue
92

@<SCITEGIC>MOL_PROPERTY
Conf_Id
SciTegic.value.IntegerValue
1120

@<SCITEGIC>MOL_PROPERTY
Probability
SciTegic.value.DoubleValue
0.02

@<SCITEGIC>MOL_PROPERTY
Sum Probability
SciTegic.value.DoubleValue
99.66

@<SCITEGIC>MOL_PROPERTY
Delta G
SciTegic.value.DoubleValue
4.270

@<SCITEGIC>MOL_PROPERTY
G
SciTegic.value.DoubleValue
-3.693

@<SCITEGIC>MOL_PROPERTY
E
SciTegic.value.DoubleValue
-29.155

@<SCITEGIC>MOL_PROPERTY
-TS
SciTegic.value.DoubleValue
25.462

@<SCITEGIC>MOL_PROPERTY
U+W
SciTegic.value.DoubleValue
-49.722

@<SCITEGIC>MOL_PROPERTY
U
SciTegic.value.DoubleValue
10.166

@<SCITEGIC>MOL_PROPERTY
W
SciTegic.value.DoubleValue
-59.888

@<SCITEGIC>MOL_PROPERTY
W(PB)
SciTegic.value.DoubleValue
-62.282

@<SCITEGIC>MOL_PROPERTY
W(SA)
SciTegic.value.DoubleValue
2.394

@<SCITEGIC>MOL_PROPERTY
Valence
SciTegic.value.DoubleValue
9.218

@<SCITEGIC>MOL_PROPERTY
Coulomb
SciTegic.value.DoubleValue
0.150

@<SCITEGIC>MOL_PROPERTY
VdW
SciTegic.value.DoubleValue
0.798

@<SCITEGIC>MOL_PROPERTY
VdW6
SciTegic.value.DoubleValue
-11.033

@<SCITEGIC>MOL_PROPERTY
VdW12
SciTegic.value.DoubleValue
11.831

@<SCITEGIC>MOL_PROPERTY
Bond
SciTegic.value.DoubleValue
0.256

@<SCITEGIC>MOL_PROPERTY
Angle
SciTegic.value.DoubleValue
3.425

@<SCITEGIC>MOL_PROPERTY
Pdih
SciTegic.value.DoubleValue
5.536

@<SCITEGIC>MOL_PROPERTY
Idih
SciTegic.value.DoubleValue
0.001

@<SCITEGIC>MOL_PROPERTY
Tether
SciTegic.value.DoubleValue
0.000

@<TRIPOS>MOLECULE
guest-8_vm2.mol2 : vm2 ligand conformer 93
          25          24           1
SMALL
USER_CHARGES
 
@<TRIPOS>ATOM
       1    C1      19.951449   19.791681   26.708056 C.2        1 MOL1         0.6168
       2    O1      20.208184   19.332407   27.803858 O.co2      1 MOL1        -0.6703
       3    O2      18.871161   20.264457   26.413976 O.co2      1 MOL1        -0.6703
       4    C2      21.056548   19.799263   25.655580 C.3        1 MOL1        -0.1963
       5    H1      21.947344   20.236682   26.121009 H          1 MOL1         0.0750
       6    H2      20.765155   20.477047   24.844947 H          1 MOL1         0.0750
       7    C3      21.406926   18.394169   25.094039 C.3        1 MOL1        -0.1860
       8    H3      22.254548   18.482665   24.402239 H          1 MOL1         0.0752
       9    H4      21.758123   17.761940   25.921138 H          1 MOL1         0.0752
      10    C4      20.229176   17.675483   24.386173 C.3        1 MOL1        -0.1858
      11    H5      19.439722   17.471425   25.122495 H          1 MOL1         0.0752
      12    H6      20.574683   16.693766   24.034890 H          1 MOL1         0.0752
      13    C5      19.607506   18.445357   23.194105 C.3        1 MOL1        -0.1858
      14    H7      18.783610   17.844829   22.785734 H          1 MOL1         0.0752
      15    H8      19.154104   19.376689   23.556684 H          1 MOL1         0.0752
      16    C6      20.619538   18.748150   22.062157 C.3        1 MOL1        -0.1858
      17    H9      21.134695   17.818444   21.785110 H          1 MOL1         0.0752
      18    H10     21.392469   19.438665   22.424071 H          1 MOL1         0.0752
      19    C7      19.961140   19.344213   20.796286 C.3        1 MOL1        -0.1834
      20    H11     20.721354   19.423135   20.006992 H          1 MOL1         0.0752
      21    H12     19.191920   18.656510   20.418700 H          1 MOL1         0.0752
      22    C8      19.341373   20.738820   21.031770 C.3        1 MOL1        -0.2849
      23    H13     20.086650   21.436668   21.435081 H          1 MOL1         0.0764
      24    H14     18.963009   21.155285   20.089319 H          1 MOL1         0.0764
      25    H15     18.500495   20.689562   21.734884 H          1 MOL1         0.0764
@<TRIPOS>BOND
    1     1     2    1
    2     1     3    2
    3     1     4    1
    4     4     5    1
    5     4     6    1
    6     4     7    1
    7     7     8    1
    8     7     9    1
    9     7    10    1
   10    10    11    1
   11    10    12    1
   12    10    13    1
   13    13    14    1
   14    13    15    1
   15    13    16    1
   16    16    17    1
   17    16    18    1
   18    16    19    1
   19    19    20    1
   20    19    21    1
   21    19    22    1
   22    22    23    1
   23    22    24    1
   24    22    25    1
@<TRIPOS>SUBSTRUCTURE
       1 MOL1            1 RESIDUE      1      MOL     
@<SCITEGIC>MOL_PROPERTY
VM2 Rank
SciTegic.value.IntegerValue
93

@<SCITEGIC>MOL_PROPERTY
Conf_Id
SciTegic.value.IntegerValue
237

@<SCITEGIC>MOL_PROPERTY
Probability
SciTegic.value.DoubleValue
0.02

@<SCITEGIC>MOL_PROPERTY
Sum Probability
SciTegic.value.DoubleValue
99.67

@<SCITEGIC>MOL_PROPERTY
Delta G
SciTegic.value.DoubleValue
4.301

@<SCITEGIC>MOL_PROPERTY
G
SciTegic.value.DoubleValue
-3.661

@<SCITEGIC>MOL_PROPERTY
E
SciTegic.value.DoubleValue
-29.034

@<SCITEGIC>MOL_PROPERTY
-TS
SciTegic.value.DoubleValue
25.373

@<SCITEGIC>MOL_PROPERTY
U+W
SciTegic.value.DoubleValue
-49.602

@<SCITEGIC>MOL_PROPERTY
U
SciTegic.value.DoubleValue
10.962

@<SCITEGIC>MOL_PROPERTY
W
SciTegic.value.DoubleValue
-60.564

@<SCITEGIC>MOL_PROPERTY
W(PB)
SciTegic.value.DoubleValue
-62.939

@<SCITEGIC>MOL_PROPERTY
W(SA)
SciTegic.value.DoubleValue
2.375

@<SCITEGIC>MOL_PROPERTY
Valence
SciTegic.value.DoubleValue
9.203

@<SCITEGIC>MOL_PROPERTY
Coulomb
SciTegic.value.DoubleValue
1.167

@<SCITEGIC>MOL_PROPERTY
VdW
SciTegic.value.DoubleValue
0.592

@<SCITEGIC>MOL_PROPERTY
VdW6
SciTegic.value.DoubleValue
-11.372

@<SCITEGIC>MOL_PROPERTY
VdW12
SciTegic.value.DoubleValue
11.964

@<SCITEGIC>MOL_PROPERTY
Bond
SciTegic.value.DoubleValue
0.260

@<SCITEGIC>MOL_PROPERTY
Angle
SciTegic.value.DoubleValue
3.321

@<SCITEGIC>MOL_PROPERTY
Pdih
SciTegic.value.DoubleValue
5.621

@<SCITEGIC>MOL_PROPERTY
Idih
SciTegic.value.DoubleValue
0.001

@<SCITEGIC>MOL_PROPERTY
Tether
SciTegic.value.DoubleValue
0.000

@<TRIPOS>MOLECULE
guest-8_vm2.mol2 : vm2 ligand conformer 94
          25          24           1
SMALL
USER_CHARGES
 
@<TRIPOS>ATOM
       1    C1      20.029724   19.141867   26.984003 C.2        1 MOL1         0.6168
       2    O1      20.899018   19.388720   27.797007 O.co2      1 MOL1        -0.6703
       3    O2      18.876092   19.505518   27.102474 O.co2      1 MOL1        -0.6703
       4    C2      20.403803   18.305385   25.763655 C.3        1 MOL1        -0.1963
       5    H1      19.483937   17.936900   25.295470 H          1 MOL1         0.0750
       6    H2      20.943596   17.422815   26.125857 H          1 MOL1         0.0750
       7    C3      21.282526   19.055923   24.726053 C.3        1 MOL1        -0.1860
       8    H3      22.220197   19.358876   25.211892 H          1 MOL1         0.0752
       9    H4      21.568668   18.362234   23.924865 H          1 MOL1         0.0752
      10    C4      20.613071   20.312292   24.111856 C.3        1 MOL1        -0.1858
      11    H5      21.319067   20.788014   23.418715 H          1 MOL1         0.0752
      12    H6      20.439553   21.049344   24.907807 H          1 MOL1         0.0752
      13    C5      19.270257   20.052956   23.379548 C.3        1 MOL1        -0.1858
      14    H7      18.514764   19.739003   24.112253 H          1 MOL1         0.0752
      15    H8      18.906052   21.004302   22.968891 H          1 MOL1         0.0752
      16    C6      19.329711   19.006156   22.238707 C.3        1 MOL1        -0.1858
      17    H9      18.319835   18.890785   21.822304 H          1 MOL1         0.0752
      18    H10     19.604972   18.024170   22.644993 H          1 MOL1         0.0752
      19    C7      20.300797   19.391341   21.100088 C.3        1 MOL1        -0.1834
      20    H11     20.048223   20.390826   20.720255 H          1 MOL1         0.0752
      21    H12     21.328362   19.444164   21.483405 H          1 MOL1         0.0752
      22    C8      20.248001   18.373841   19.942609 C.3        1 MOL1        -0.2849
      23    H13     19.240263   18.322234   19.510084 H          1 MOL1         0.0764
      24    H14     20.945139   18.659670   19.144310 H          1 MOL1         0.0764
      25    H15     20.523955   17.369733   20.290379 H          1 MOL1         0.0764
@<TRIPOS>BOND
    1     1     2    1
    2     1     3    2
    3     1     4    1
    4     4     5    1
    5     4     6    1
    6     4     7    1
    7     7     8    1
    8     7     9    1
    9     7    10    1
   10    10    11    1
   11    10    12    1
   12    10    13    1
   13    13    14    1
   14    13    15    1
   15    13    16    1
   16    16    17    1
   17    16    18    1
   18    16    19    1
   19    19    20    1
   20    19    21    1
   21    19    22    1
   22    22    23    1
   23    22    24    1
   24    22    25    1
@<TRIPOS>SUBSTRUCTURE
       1 MOL1            1 RESIDUE      1      MOL     
@<SCITEGIC>MOL_PROPERTY
VM2 Rank
SciTegic.value.IntegerValue
94

@<SCITEGIC>MOL_PROPERTY
Conf_Id
SciTegic.value.IntegerValue
724

@<SCITEGIC>MOL_PROPERTY
Probability
SciTegic.value.DoubleValue
0.02

@<SCITEGIC>MOL_PROPERTY
Sum Probability
SciTegic.value.DoubleValue
99.69

@<SCITEGIC>MOL_PROPERTY
Delta G
SciTegic.value.DoubleValue
4.312

@<SCITEGIC>MOL_PROPERTY
G
SciTegic.value.DoubleValue
-3.650

@<SCITEGIC>MOL_PROPERTY
E
SciTegic.value.DoubleValue
-29.213

@<SCITEGIC>MOL_PROPERTY
-TS
SciTegic.value.DoubleValue
25.563

@<SCITEGIC>MOL_PROPERTY
U+W
SciTegic.value.DoubleValue
-49.781

@<SCITEGIC>MOL_PROPERTY
U
SciTegic.value.DoubleValue
10.242

@<SCITEGIC>MOL_PROPERTY
W
SciTegic.value.DoubleValue
-60.023

@<SCITEGIC>MOL_PROPERTY
W(PB)
SciTegic.value.DoubleValue
-62.388

@<SCITEGIC>MOL_PROPERTY
W(SA)
SciTegic.value.DoubleValue
2.365

@<SCITEGIC>MOL_PROPERTY
Valence
SciTegic.value.DoubleValue
9.192

@<SCITEGIC>MOL_PROPERTY
Coulomb
SciTegic.value.DoubleValue
0.540

@<SCITEGIC>MOL_PROPERTY
VdW
SciTegic.value.DoubleValue
0.509

@<SCITEGIC>MOL_PROPERTY
VdW6
SciTegic.value.DoubleValue
-11.539

@<SCITEGIC>MOL_PROPERTY
VdW12
SciTegic.value.DoubleValue
12.049

@<SCITEGIC>MOL_PROPERTY
Bond
SciTegic.value.DoubleValue
0.268

@<SCITEGIC>MOL_PROPERTY
Angle
SciTegic.value.DoubleValue
3.481

@<SCITEGIC>MOL_PROPERTY
Pdih
SciTegic.value.DoubleValue
5.442

@<SCITEGIC>MOL_PROPERTY
Idih
SciTegic.value.DoubleValue
0.001

@<SCITEGIC>MOL_PROPERTY
Tether
SciTegic.value.DoubleValue
0.000

@<TRIPOS>MOLECULE
guest-8_vm2.mol2 : vm2 ligand conformer 95
          25          24           1
SMALL
USER_CHARGES
 
@<TRIPOS>ATOM
       1    C1      19.650173   19.252036   26.727579 C.2        1 MOL1         0.6168
       2    O1      20.209275   19.334428   27.803797 O.co2      1 MOL1        -0.6703
       3    O2      18.671531   19.906949   26.426960 O.co2      1 MOL1        -0.6703
       4    C2      20.191614   18.250044   25.711778 C.3        1 MOL1        -0.1963
       5    H1      19.437149   18.098408   24.931255 H          1 MOL1         0.0750
       6    H2      20.301829   17.289386   26.227981 H          1 MOL1         0.0750
       7    C3      21.553222   18.656130   25.084482 C.3        1 MOL1        -0.1860
       8    H3      22.300871   18.733938   25.885801 H          1 MOL1         0.0752
       9    H4      21.901748   17.850740   24.425119 H          1 MOL1         0.0752
      10    C4      21.524043   19.994595   24.301960 C.3        1 MOL1        -0.1858
      11    H5      22.529528   20.194927   23.907736 H          1 MOL1         0.0752
      12    H6      21.305753   20.813439   25.001167 H          1 MOL1         0.0752
      13    C5      20.505993   20.054632   23.135694 C.3        1 MOL1        -0.1858
      14    H7      19.487050   19.972966   23.535069 H          1 MOL1         0.0752
      15    H8      20.571355   21.046928   22.669559 H          1 MOL1         0.0752
      16    C6      20.745059   18.973042   22.053932 C.3        1 MOL1        -0.1858
      17    H9      20.575107   17.974429   22.477135 H          1 MOL1         0.0752
      18    H10     21.797666   19.006172   21.741820 H          1 MOL1         0.0752
      19    C7      19.853121   19.151057   20.803345 C.3        1 MOL1        -0.1834
      20    H11     20.022026   20.144233   20.364849 H          1 MOL1         0.0752
      21    H12     20.160996   18.419788   20.043347 H          1 MOL1         0.0752
      22    C8      18.348967   18.961086   21.096472 C.3        1 MOL1        -0.2849
      23    H13     17.970824   19.740619   21.769679 H          1 MOL1         0.0764
      24    H14     17.766869   19.012877   20.167336 H          1 MOL1         0.0764
      25    H15     18.159661   17.984350   21.560411 H          1 MOL1         0.0764
@<TRIPOS>BOND
    1     1     2    1
    2     1     3    2
    3     1     4    1
    4     4     5    1
    5     4     6    1
    6     4     7    1
    7     7     8    1
    8     7     9    1
    9     7    10    1
   10    10    11    1
   11    10    12    1
   12    10    13    1
   13    13    14    1
   14    13    15    1
   15    13    16    1
   16    16    17    1
   17    16    18    1
   18    16    19    1
   19    19    20    1
   20    19    21    1
   21    19    22    1
   22    22    23    1
   23    22    24    1
   24    22    25    1
@<TRIPOS>SUBSTRUCTURE
       1 MOL1            1 RESIDUE      1      MOL     
@<SCITEGIC>MOL_PROPERTY
VM2 Rank
SciTegic.value.IntegerValue
95

@<SCITEGIC>MOL_PROPERTY
Conf_Id
SciTegic.value.IntegerValue
813

@<SCITEGIC>MOL_PROPERTY
Probability
SciTegic.value.DoubleValue
0.02

@<SCITEGIC>MOL_PROPERTY
Sum Probability
SciTegic.value.DoubleValue
99.71

@<SCITEGIC>MOL_PROPERTY
Delta G
SciTegic.value.DoubleValue
4.340

@<SCITEGIC>MOL_PROPERTY
G
SciTegic.value.DoubleValue
-3.623

@<SCITEGIC>MOL_PROPERTY
E
SciTegic.value.DoubleValue
-28.996

@<SCITEGIC>MOL_PROPERTY
-TS
SciTegic.value.DoubleValue
25.373

@<SCITEGIC>MOL_PROPERTY
U+W
SciTegic.value.DoubleValue
-49.563

@<SCITEGIC>MOL_PROPERTY
U
SciTegic.value.DoubleValue
10.962

@<SCITEGIC>MOL_PROPERTY
W
SciTegic.value.DoubleValue
-60.525

@<SCITEGIC>MOL_PROPERTY
W(PB)
SciTegic.value.DoubleValue
-62.909

@<SCITEGIC>MOL_PROPERTY
W(SA)
SciTegic.value.DoubleValue
2.385

@<SCITEGIC>MOL_PROPERTY
Valence
SciTegic.value.DoubleValue
9.203

@<SCITEGIC>MOL_PROPERTY
Coulomb
SciTegic.value.DoubleValue
1.166

@<SCITEGIC>MOL_PROPERTY
VdW
SciTegic.value.DoubleValue
0.592

@<SCITEGIC>MOL_PROPERTY
VdW6
SciTegic.value.DoubleValue
-11.371

@<SCITEGIC>MOL_PROPERTY
VdW12
SciTegic.value.DoubleValue
11.964

@<SCITEGIC>MOL_PROPERTY
Bond
SciTegic.value.DoubleValue
0.260

@<SCITEGIC>MOL_PROPERTY
Angle
SciTegic.value.DoubleValue
3.321

@<SCITEGIC>MOL_PROPERTY
Pdih
SciTegic.value.DoubleValue
5.622

@<SCITEGIC>MOL_PROPERTY
Idih
SciTegic.value.DoubleValue
0.001

@<SCITEGIC>MOL_PROPERTY
Tether
SciTegic.value.DoubleValue
0.000

@<TRIPOS>MOLECULE
guest-8_vm2.mol2 : vm2 ligand conformer 96
          25          24           1
SMALL
USER_CHARGES
 
@<TRIPOS>ATOM
       1    C1      19.774189   19.460165   26.869761 C.2        1 MOL1         0.6168
       2    O1      20.453451   19.506566   27.876761 O.co2      1 MOL1        -0.6703
       3    O2      18.929664   20.288220   26.590220 O.co2      1 MOL1        -0.6703
       4    C2      19.974699   18.281253   25.921586 C.3        1 MOL1        -0.1963
       5    H1      19.125617   18.237983   25.229859 H          1 MOL1         0.0750
       6    H2      19.931049   17.366813   26.524412 H          1 MOL1         0.0750
       7    C3      21.315779   18.317907   25.139110 C.3        1 MOL1        -0.1860
       8    H3      22.144365   18.291587   25.860174 H          1 MOL1         0.0752
       9    H4      21.410719   17.402905   24.540489 H          1 MOL1         0.0752
      10    C4      21.492597   19.560103   24.227648 C.3        1 MOL1        -0.1858
      11    H5      22.465833   19.491747   23.722961 H          1 MOL1         0.0752
      12    H6      21.542541   20.459160   24.857158 H          1 MOL1         0.0752
      13    C5      20.387856   19.766299   23.160623 C.3        1 MOL1        -0.1858
      14    H7      19.421412   19.940117   23.652110 H          1 MOL1         0.0752
      15    H8      20.618854   20.688117   22.612241 H          1 MOL1         0.0752
      16    C6      20.265126   18.590029   22.160847 C.3        1 MOL1        -0.1858
      17    H9      20.024962   17.670384   22.709383 H          1 MOL1         0.0752
      18    H10     21.232566   18.418058   21.669971 H          1 MOL1         0.0752
      19    C7      19.170977   18.806095   21.089244 C.3        1 MOL1        -0.1834
      20    H11     19.054210   17.877166   20.514234 H          1 MOL1         0.0752
      21    H12     18.204604   18.991546   21.578164 H          1 MOL1         0.0752
      22    C8      19.488662   19.957363   20.110199 C.3        1 MOL1        -0.2849
      23    H13     20.467323   19.810384   19.635118 H          1 MOL1         0.0764
      24    H14     18.731845   20.005586   19.316615 H          1 MOL1         0.0764
      25    H15     19.495504   20.928354   20.620623 H          1 MOL1         0.0764
@<TRIPOS>BOND
    1     1     2    1
    2     1     3    2
    3     1     4    1
    4     4     5    1
    5     4     6    1
    6     4     7    1
    7     7     8    1
    8     7     9    1
    9     7    10    1
   10    10    11    1
   11    10    12    1
   12    10    13    1
   13    13    14    1
   14    13    15    1
   15    13    16    1
   16    16    17    1
   17    16    18    1
   18    16    19    1
   19    19    20    1
   20    19    21    1
   21    19    22    1
   22    22    23    1
   23    22    24    1
   24    22    25    1
@<TRIPOS>SUBSTRUCTURE
       1 MOL1            1 RESIDUE      1      MOL     
@<SCITEGIC>MOL_PROPERTY
VM2 Rank
SciTegic.value.IntegerValue
96

@<SCITEGIC>MOL_PROPERTY
Conf_Id
SciTegic.value.IntegerValue
264

@<SCITEGIC>MOL_PROPERTY
Probability
SciTegic.value.DoubleValue
0.01

@<SCITEGIC>MOL_PROPERTY
Sum Probability
SciTegic.value.DoubleValue
99.72

@<SCITEGIC>MOL_PROPERTY
Delta G
SciTegic.value.DoubleValue
4.391

@<SCITEGIC>MOL_PROPERTY
G
SciTegic.value.DoubleValue
-3.571

@<SCITEGIC>MOL_PROPERTY
E
SciTegic.value.DoubleValue
-28.895

@<SCITEGIC>MOL_PROPERTY
-TS
SciTegic.value.DoubleValue
25.323

@<SCITEGIC>MOL_PROPERTY
U+W
SciTegic.value.DoubleValue
-49.462

@<SCITEGIC>MOL_PROPERTY
U
SciTegic.value.DoubleValue
10.878

@<SCITEGIC>MOL_PROPERTY
W
SciTegic.value.DoubleValue
-60.340

@<SCITEGIC>MOL_PROPERTY
W(PB)
SciTegic.value.DoubleValue
-62.738

@<SCITEGIC>MOL_PROPERTY
W(SA)
SciTegic.value.DoubleValue
2.398

@<SCITEGIC>MOL_PROPERTY
Valence
SciTegic.value.DoubleValue
9.321

@<SCITEGIC>MOL_PROPERTY
Coulomb
SciTegic.value.DoubleValue
0.827

@<SCITEGIC>MOL_PROPERTY
VdW
SciTegic.value.DoubleValue
0.731

@<SCITEGIC>MOL_PROPERTY
VdW6
SciTegic.value.DoubleValue
-11.181

@<SCITEGIC>MOL_PROPERTY
VdW12
SciTegic.value.DoubleValue
11.912

@<SCITEGIC>MOL_PROPERTY
Bond
SciTegic.value.DoubleValue
0.267

@<SCITEGIC>MOL_PROPERTY
Angle
SciTegic.value.DoubleValue
3.459

@<SCITEGIC>MOL_PROPERTY
Pdih
SciTegic.value.DoubleValue
5.594

@<SCITEGIC>MOL_PROPERTY
Idih
SciTegic.value.DoubleValue
0.001

@<SCITEGIC>MOL_PROPERTY
Tether
SciTegic.value.DoubleValue
0.000

@<TRIPOS>MOLECULE
guest-8_vm2.mol2 : vm2 ligand conformer 97
          25          24           1
SMALL
USER_CHARGES
 
@<TRIPOS>ATOM
       1    C1      20.536502   18.918155   26.724179 C.2        1 MOL1         0.6168
       2    O1      21.731314   19.139611   26.746990 O.co2      1 MOL1        -0.6703
       3    O2      20.049561   17.828536   26.953855 O.co2      1 MOL1        -0.6703
       4    C2      19.595929   20.079795   26.415525 C.3        1 MOL1        -0.1963
       5    H1      19.929404   20.938860   27.009406 H          1 MOL1         0.0750
       6    H2      18.590707   19.820157   26.768855 H          1 MOL1         0.0750
       7    C3      19.553005   20.471885   24.915928 C.3        1 MOL1        -0.1860
       8    H3      18.963250   21.391344   24.802490 H          1 MOL1         0.0752
       9    H4      20.572395   20.704204   24.580139 H          1 MOL1         0.0752
      10    C4      18.940959   19.360085   24.030831 C.3        1 MOL1        -0.1858
      11    H5      17.951301   19.093336   24.425683 H          1 MOL1         0.0752
      12    H6      19.549798   18.448888   24.100206 H          1 MOL1         0.0752
      13    C5      18.781314   19.772248   22.545928 C.3        1 MOL1        -0.1858
      14    H7      18.291894   18.953839   22.001830 H          1 MOL1         0.0752
      15    H8      18.089866   20.623591   22.486570 H          1 MOL1         0.0752
      16    C6      20.098740   20.152689   21.819590 C.3        1 MOL1        -0.1858
      17    H9      20.503031   21.073712   22.259466 H          1 MOL1         0.0752
      18    H10     19.863771   20.401219   20.775808 H          1 MOL1         0.0752
      19    C7      21.199441   19.063445   21.837474 C.3        1 MOL1        -0.1834
      20    H11     22.087136   19.453810   21.321281 H          1 MOL1         0.0752
      21    H12     21.513472   18.860399   22.870265 H          1 MOL1         0.0752
      22    C8      20.766235   17.747550   21.155699 C.3        1 MOL1        -0.2849
      23    H13     21.604023   17.039355   21.119944 H          1 MOL1         0.0764
      24    H14     19.946598   17.266240   21.703903 H          1 MOL1         0.0764
      25    H15     20.432287   17.929968   20.126084 H          1 MOL1         0.0764
@<TRIPOS>BOND
    1     1     2    1
    2     1     3    2
    3     1     4    1
    4     4     5    1
    5     4     6    1
    6     4     7    1
    7     7     8    1
    8     7     9    1
    9     7    10    1
   10    10    11    1
   11    10    12    1
   12    10    13    1
   13    13    14    1
   14    13    15    1
   15    13    16    1
   16    16    17    1
   17    16    18    1
   18    16    19    1
   19    19    20    1
   20    19    21    1
   21    19    22    1
   22    22    23    1
   23    22    24    1
   24    22    25    1
@<TRIPOS>SUBSTRUCTURE
       1 MOL1            1 RESIDUE      1      MOL     
@<SCITEGIC>MOL_PROPERTY
VM2 Rank
SciTegic.value.IntegerValue
97

@<SCITEGIC>MOL_PROPERTY
Conf_Id
SciTegic.value.IntegerValue
239

@<SCITEGIC>MOL_PROPERTY
Probability
SciTegic.value.DoubleValue
0.01

@<SCITEGIC>MOL_PROPERTY
Sum Probability
SciTegic.value.DoubleValue
99.74

@<SCITEGIC>MOL_PROPERTY
Delta G
SciTegic.value.DoubleValue
4.431

@<SCITEGIC>MOL_PROPERTY
G
SciTegic.value.DoubleValue
-3.532

@<SCITEGIC>MOL_PROPERTY
E
SciTegic.value.DoubleValue
-29.006

@<SCITEGIC>MOL_PROPERTY
-TS
SciTegic.value.DoubleValue
25.475

@<SCITEGIC>MOL_PROPERTY
U+W
SciTegic.value.DoubleValue
-49.574

@<SCITEGIC>MOL_PROPERTY
U
SciTegic.value.DoubleValue
11.216

@<SCITEGIC>MOL_PROPERTY
W
SciTegic.value.DoubleValue
-60.790

@<SCITEGIC>MOL_PROPERTY
W(PB)
SciTegic.value.DoubleValue
-63.165

@<SCITEGIC>MOL_PROPERTY
W(SA)
SciTegic.value.DoubleValue
2.375

@<SCITEGIC>MOL_PROPERTY
Valence
SciTegic.value.DoubleValue
9.147

@<SCITEGIC>MOL_PROPERTY
Coulomb
SciTegic.value.DoubleValue
1.470

@<SCITEGIC>MOL_PROPERTY
VdW
SciTegic.value.DoubleValue
0.600

@<SCITEGIC>MOL_PROPERTY
VdW6
SciTegic.value.DoubleValue
-11.295

@<SCITEGIC>MOL_PROPERTY
VdW12
SciTegic.value.DoubleValue
11.895

@<SCITEGIC>MOL_PROPERTY
Bond
SciTegic.value.DoubleValue
0.253

@<SCITEGIC>MOL_PROPERTY
Angle
SciTegic.value.DoubleValue
3.362

@<SCITEGIC>MOL_PROPERTY
Pdih
SciTegic.value.DoubleValue
5.531

@<SCITEGIC>MOL_PROPERTY
Idih
SciTegic.value.DoubleValue
0.001

@<SCITEGIC>MOL_PROPERTY
Tether
SciTegic.value.DoubleValue
0.000

@<TRIPOS>MOLECULE
guest-8_vm2.mol2 : vm2 ligand conformer 98
          25          24           1
SMALL
USER_CHARGES
 
@<TRIPOS>ATOM
       1    C1      19.814502   18.873030   26.732510 C.2        1 MOL1         0.6168
       2    O1      20.438403   17.852768   26.949179 O.co2      1 MOL1        -0.6703
       3    O2      18.602267   18.944130   26.783223 O.co2      1 MOL1        -0.6703
       4    C2      20.595864   20.142255   26.404045 C.3        1 MOL1        -0.1963
       5    H1      21.633448   20.010201   26.733756 H          1 MOL1         0.0750
       6    H2      20.171847   20.953961   27.006737 H          1 MOL1         0.0750
       7    C3      20.555128   20.534584   24.904449 C.3        1 MOL1        -0.1860
       8    H3      19.507295   20.637732   24.592540 H          1 MOL1         0.0752
       9    H4      21.023073   21.520150   24.778862 H          1 MOL1         0.0752
      10    C4      21.280299   19.506415   24.003842 C.3        1 MOL1        -0.1858
      11    H5      20.791447   18.526584   24.085884 H          1 MOL1         0.0752
      12    H6      22.304308   19.365553   24.375391 H          1 MOL1         0.0752
      13    C5      21.353111   19.933168   22.516266 C.3        1 MOL1        -0.1858
      14    H7      21.931483   20.863982   22.442266 H          1 MOL1         0.0752
      15    H8      21.928091   19.181388   21.959854 H          1 MOL1         0.0752
      16    C6      19.982175   20.145372   21.820980 C.3        1 MOL1        -0.1858
      17    H9      20.160253   20.419816   20.772444 H          1 MOL1         0.0752
      18    H10     19.476426   21.009406   22.271411 H          1 MOL1         0.0752
      19    C7      19.026585   18.927408   21.862536 C.3        1 MOL1        -0.1834
      20    H11     18.764188   18.688201   22.901972 H          1 MOL1         0.0752
      21    H12     18.085492   19.203336   21.367509 H          1 MOL1         0.0752
      22    C8      19.604667   17.674870   21.168970 C.3        1 MOL1        -0.2849
      23    H13     18.861133   16.867678   21.151473 H          1 MOL1         0.0764
      24    H14     19.889425   17.896088   20.132205 H          1 MOL1         0.0764
      25    H15     20.490349   17.300286   21.697405 H          1 MOL1         0.0764
@<TRIPOS>BOND
    1     1     2    1
    2     1     3    2
    3     1     4    1
    4     4     5    1
    5     4     6    1
    6     4     7    1
    7     7     8    1
    8     7     9    1
    9     7    10    1
   10    10    11    1
   11    10    12    1
   12    10    13    1
   13    13    14    1
   14    13    15    1
   15    13    16    1
   16    16    17    1
   17    16    18    1
   18    16    19    1
   19    19    20    1
   20    19    21    1
   21    19    22    1
   22    22    23    1
   23    22    24    1
   24    22    25    1
@<TRIPOS>SUBSTRUCTURE
       1 MOL1            1 RESIDUE      1      MOL     
@<SCITEGIC>MOL_PROPERTY
VM2 Rank
SciTegic.value.IntegerValue
98

@<SCITEGIC>MOL_PROPERTY
Conf_Id
SciTegic.value.IntegerValue
461

@<SCITEGIC>MOL_PROPERTY
Probability
SciTegic.value.DoubleValue
0.01

@<SCITEGIC>MOL_PROPERTY
Sum Probability
SciTegic.value.DoubleValue
99.75

@<SCITEGIC>MOL_PROPERTY
Delta G
SciTegic.value.DoubleValue
4.437

@<SCITEGIC>MOL_PROPERTY
G
SciTegic.value.DoubleValue
-3.525

@<SCITEGIC>MOL_PROPERTY
E
SciTegic.value.DoubleValue
-29.000

@<SCITEGIC>MOL_PROPERTY
-TS
SciTegic.value.DoubleValue
25.475

@<SCITEGIC>MOL_PROPERTY
U+W
SciTegic.value.DoubleValue
-49.568

@<SCITEGIC>MOL_PROPERTY
U
SciTegic.value.DoubleValue
11.216

@<SCITEGIC>MOL_PROPERTY
W
SciTegic.value.DoubleValue
-60.784

@<SCITEGIC>MOL_PROPERTY
W(PB)
SciTegic.value.DoubleValue
-63.159

@<SCITEGIC>MOL_PROPERTY
W(SA)
SciTegic.value.DoubleValue
2.375

@<SCITEGIC>MOL_PROPERTY
Valence
SciTegic.value.DoubleValue
9.147

@<SCITEGIC>MOL_PROPERTY
Coulomb
SciTegic.value.DoubleValue
1.470

@<SCITEGIC>MOL_PROPERTY
VdW
SciTegic.value.DoubleValue
0.600

@<SCITEGIC>MOL_PROPERTY
VdW6
SciTegic.value.DoubleValue
-11.294

@<SCITEGIC>MOL_PROPERTY
VdW12
SciTegic.value.DoubleValue
11.894

@<SCITEGIC>MOL_PROPERTY
Bond
SciTegic.value.DoubleValue
0.253

@<SCITEGIC>MOL_PROPERTY
Angle
SciTegic.value.DoubleValue
3.362

@<SCITEGIC>MOL_PROPERTY
Pdih
SciTegic.value.DoubleValue
5.531

@<SCITEGIC>MOL_PROPERTY
Idih
SciTegic.value.DoubleValue
0.001

@<SCITEGIC>MOL_PROPERTY
Tether
SciTegic.value.DoubleValue
0.000

@<TRIPOS>MOLECULE
guest-8_vm2.mol2 : vm2 ligand conformer 99
          25          24           1
SMALL
USER_CHARGES
 
@<TRIPOS>ATOM
       1    C1      19.969550   19.219375   26.987009 C.2        1 MOL1         0.6168
       2    O1      20.670400   18.540783   27.712158 O.co2      1 MOL1        -0.6703
       3    O2      18.766035   19.079524   26.892419 O.co2      1 MOL1        -0.6703
       4    C2      20.635552   20.326102   26.174216 C.3        1 MOL1        -0.1963
       5    H1      21.255391   20.909027   26.865330 H          1 MOL1         0.0750
       6    H2      19.859972   21.006885   25.805974 H          1 MOL1         0.0750
       7    C3      21.517810   19.811589   25.003745 C.3        1 MOL1        -0.1860
       8    H3      22.000066   20.667331   24.512361 H          1 MOL1         0.0752
       9    H4      22.329467   19.198861   25.419780 H          1 MOL1         0.0752
      10    C4      20.759211   18.976174   23.942914 C.3        1 MOL1        -0.1858
      11    H5      20.300301   18.098883   24.418929 H          1 MOL1         0.0752
      12    H6      21.496224   18.590938   23.226988 H          1 MOL1         0.0752
      13    C5      19.676747   19.781062   23.182792 C.3        1 MOL1        -0.1858
      14    H7      18.934495   20.155581   23.899272 H          1 MOL1         0.0752
      15    H8      20.128644   20.666911   22.718195 H          1 MOL1         0.0752
      16    C6      18.922346   18.948643   22.114967 C.3        1 MOL1        -0.1858
      17    H9      18.132643   19.574191   21.677182 H          1 MOL1         0.0752
      18    H10     18.407107   18.116211   22.613343 H          1 MOL1         0.0752
      19    C7      19.797878   18.380231   20.970446 C.3        1 MOL1        -0.1834
      20    H11     20.522503   17.658216   21.369054 H          1 MOL1         0.0752
      21    H12     19.152023   17.813156   20.286107 H          1 MOL1         0.0752
      22    C8      20.537471   19.470516   20.165333 C.3        1 MOL1        -0.2849
      23    H13     21.282130   19.986512   20.784452 H          1 MOL1         0.0764
      24    H14     21.065162   19.026333   19.311519 H          1 MOL1         0.0764
      25    H15     19.833450   20.217914   19.777109 H          1 MOL1         0.0764
@<TRIPOS>BOND
    1     1     2    1
    2     1     3    2
    3     1     4    1
    4     4     5    1
    5     4     6    1
    6     4     7    1
    7     7     8    1
    8     7     9    1
    9     7    10    1
   10    10    11    1
   11    10    12    1
   12    10    13    1
   13    13    14    1
   14    13    15    1
   15    13    16    1
   16    16    17    1
   17    16    18    1
   18    16    19    1
   19    19    20    1
   20    19    21    1
   21    19    22    1
   22    22    23    1
   23    22    24    1
   24    22    25    1
@<TRIPOS>SUBSTRUCTURE
       1 MOL1            1 RESIDUE      1      MOL     
@<SCITEGIC>MOL_PROPERTY
VM2 Rank
SciTegic.value.IntegerValue
99

@<SCITEGIC>MOL_PROPERTY
Conf_Id
SciTegic.value.IntegerValue
558

@<SCITEGIC>MOL_PROPERTY
Probability
SciTegic.value.DoubleValue
0.01

@<SCITEGIC>MOL_PROPERTY
Sum Probability
SciTegic.value.DoubleValue
99.76

@<SCITEGIC>MOL_PROPERTY
Delta G
SciTegic.value.DoubleValue
4.507

@<SCITEGIC>MOL_PROPERTY
G
SciTegic.value.DoubleValue
-3.455

@<SCITEGIC>MOL_PROPERTY
E
SciTegic.value.DoubleValue
-28.658

@<SCITEGIC>MOL_PROPERTY
-TS
SciTegic.value.DoubleValue
25.203

@<SCITEGIC>MOL_PROPERTY
U+W
SciTegic.value.DoubleValue
-49.226

@<SCITEGIC>MOL_PROPERTY
U
SciTegic.value.DoubleValue
11.036

@<SCITEGIC>MOL_PROPERTY
W
SciTegic.value.DoubleValue
-60.262

@<SCITEGIC>MOL_PROPERTY
W(PB)
SciTegic.value.DoubleValue
-62.660

@<SCITEGIC>MOL_PROPERTY
W(SA)
SciTegic.value.DoubleValue
2.398

@<SCITEGIC>MOL_PROPERTY
Valence
SciTegic.value.DoubleValue
9.324

@<SCITEGIC>MOL_PROPERTY
Coulomb
SciTegic.value.DoubleValue
0.929

@<SCITEGIC>MOL_PROPERTY
VdW
SciTegic.value.DoubleValue
0.783

@<SCITEGIC>MOL_PROPERTY
VdW6
SciTegic.value.DoubleValue
-11.027

@<SCITEGIC>MOL_PROPERTY
VdW12
SciTegic.value.DoubleValue
11.810

@<SCITEGIC>MOL_PROPERTY
Bond
SciTegic.value.DoubleValue
0.268

@<SCITEGIC>MOL_PROPERTY
Angle
SciTegic.value.DoubleValue
3.515

@<SCITEGIC>MOL_PROPERTY
Pdih
SciTegic.value.DoubleValue
5.539

@<SCITEGIC>MOL_PROPERTY
Idih
SciTegic.value.DoubleValue
0.001

@<SCITEGIC>MOL_PROPERTY
Tether
SciTegic.value.DoubleValue
0.000

@<TRIPOS>MOLECULE
guest-8_vm2.mol2 : vm2 ligand conformer 100
          25          24           1
SMALL
USER_CHARGES
 
@<TRIPOS>ATOM
       1    C1      19.705570   18.888788   26.941171 C.2        1 MOL1         0.6168
       2    O1      20.438241   18.490564   27.825147 O.co2      1 MOL1        -0.6703
       3    O2      18.555145   19.234304   27.125253 O.co2      1 MOL1        -0.6703
       4    C2      20.268353   18.981864   25.527527 C.3        1 MOL1        -0.1963
       5    H1      19.449686   18.769108   24.830849 H          1 MOL1         0.0750
       6    H2      21.019573   18.192381   25.406823 H          1 MOL1         0.0750
       7    C3      20.891192   20.366947   25.219565 C.3        1 MOL1        -0.1860
       8    H3      20.105618   21.133783   25.265282 H          1 MOL1         0.0752
       9    H4      21.609270   20.614962   26.013449 H          1 MOL1         0.0752
      10    C4      21.619331   20.450755   23.854341 C.3        1 MOL1        -0.1858
      11    H5      22.475425   19.762472   23.840854 H          1 MOL1         0.0752
      12    H6      22.046466   21.459281   23.768723 H          1 MOL1         0.0752
      13    C5      20.711041   20.204819   22.622674 C.3        1 MOL1        -0.1858
      14    H7      19.680982   20.501377   22.858461 H          1 MOL1         0.0752
      15    H8      21.041233   20.864972   21.809161 H          1 MOL1         0.0752
      16    C6      20.761195   18.744367   22.107357 C.3        1 MOL1        -0.1858
      17    H9      20.438826   18.046851   22.889208 H          1 MOL1         0.0752
      18    H10     21.803839   18.486121   21.877596 H          1 MOL1         0.0752
      19    C7      19.910071   18.513563   20.837149 C.3        1 MOL1        -0.1834
      20    H11     20.224265   19.209190   20.046818 H          1 MOL1         0.0752
      21    H12     20.110636   17.502059   20.457906 H          1 MOL1         0.0752
      22    C8      18.392862   18.658028   21.085817 C.3        1 MOL1        -0.2849
      23    H13     18.126772   19.687246   21.356626 H          1 MOL1         0.0764
      24    H14     17.829037   18.396513   20.181077 H          1 MOL1         0.0764
      25    H15     18.062283   17.992921   21.894200 H          1 MOL1         0.0764
@<TRIPOS>BOND
    1     1     2    1
    2     1     3    2
    3     1     4    1
    4     4     5    1
    5     4     6    1
    6     4     7    1
    7     7     8    1
    8     7     9    1
    9     7    10    1
   10    10    11    1
   11    10    12    1
   12    10    13    1
   13    13    14    1
   14    13    15    1
   15    13    16    1
   16    16    17    1
   17    16    18    1
   18    16    19    1
   19    19    20    1
   20    19    21    1
   21    19    22    1
   22    22    23    1
   23    22    24    1
   24    22    25    1
@<TRIPOS>SUBSTRUCTURE
       1 MOL1            1 RESIDUE      1      MOL     
@<SCITEGIC>MOL_PROPERTY
VM2 Rank
SciTegic.value.IntegerValue
100

@<SCITEGIC>MOL_PROPERTY
Conf_Id
SciTegic.value.IntegerValue
448

@<SCITEGIC>MOL_PROPERTY
Probability
SciTegic.value.DoubleValue
0.01

@<SCITEGIC>MOL_PROPERTY
Sum Probability
SciTegic.value.DoubleValue
99.77

@<SCITEGIC>MOL_PROPERTY
Delta G
SciTegic.value.DoubleValue
4.542

@<SCITEGIC>MOL_PROPERTY
G
SciTegic.value.DoubleValue
-3.420

@<SCITEGIC>MOL_PROPERTY
E
SciTegic.value.DoubleValue
-28.278

@<SCITEGIC>MOL_PROPERTY
-TS
SciTegic.value.DoubleValue
24.857

@<SCITEGIC>MOL_PROPERTY
U+W
SciTegic.value.DoubleValue
-48.845

@<SCITEGIC>MOL_PROPERTY
U
SciTegic.value.DoubleValue
11.037

@<SCITEGIC>MOL_PROPERTY
W
SciTegic.value.DoubleValue
-59.882

@<SCITEGIC>MOL_PROPERTY
W(PB)
SciTegic.value.DoubleValue
-62.300

@<SCITEGIC>MOL_PROPERTY
W(SA)
SciTegic.value.DoubleValue
2.418

@<SCITEGIC>MOL_PROPERTY
Valence
SciTegic.value.DoubleValue
11.015

@<SCITEGIC>MOL_PROPERTY
Coulomb
SciTegic.value.DoubleValue
-0.980

@<SCITEGIC>MOL_PROPERTY
VdW
SciTegic.value.DoubleValue
1.002

@<SCITEGIC>MOL_PROPERTY
VdW6
SciTegic.value.DoubleValue
-10.121

@<SCITEGIC>MOL_PROPERTY
VdW12
SciTegic.value.DoubleValue
11.123

@<SCITEGIC>MOL_PROPERTY
Bond
SciTegic.value.DoubleValue
0.236

@<SCITEGIC>MOL_PROPERTY
Angle
SciTegic.value.DoubleValue
3.219

@<SCITEGIC>MOL_PROPERTY
Pdih
SciTegic.value.DoubleValue
7.559

@<SCITEGIC>MOL_PROPERTY
Idih
SciTegic.value.DoubleValue
0.001

@<SCITEGIC>MOL_PROPERTY
Tether
SciTegic.value.DoubleValue
0.000

@<TRIPOS>MOLECULE
guest-8_vm2.mol2 : vm2 ligand conformer 101
          25          24           1
SMALL
USER_CHARGES
 
@<TRIPOS>ATOM
       1    C1      19.950641   19.660536   26.883043 C.2        1 MOL1         0.6168
       2    O1      20.869735   20.413285   27.140424 O.co2      1 MOL1        -0.6703
       3    O2      18.781340   19.988250   26.934023 O.co2      1 MOL1        -0.6703
       4    C2      20.276944   18.208295   26.539871 C.3        1 MOL1        -0.1963
       5    H1      19.340359   17.658196   26.388311 H          1 MOL1         0.0750
       6    H2      20.750554   17.780997   27.431268 H          1 MOL1         0.0750
       7    C3      21.222131   18.010088   25.321297 C.3        1 MOL1        -0.1860
       8    H3      22.051862   18.729013   25.368926 H          1 MOL1         0.0752
       9    H4      21.680085   17.015468   25.407626 H          1 MOL1         0.0752
      10    C4      20.529024   18.089643   23.938109 C.3        1 MOL1        -0.1858
      11    H5      19.701423   17.368537   23.897654 H          1 MOL1         0.0752
      12    H6      21.256615   17.766989   23.183107 H          1 MOL1         0.0752
      13    C5      20.007090   19.501127   23.575240 C.3        1 MOL1        -0.1858
      14    H7      19.231281   19.794855   24.292652 H          1 MOL1         0.0752
      15    H8      20.817685   20.236022   23.673417 H          1 MOL1         0.0752
      16    C6      19.394377   19.587812   22.156635 C.3        1 MOL1        -0.1858
      17    H9      18.902298   20.564450   22.052050 H          1 MOL1         0.0752
      18    H10     18.605879   18.830510   22.048967 H          1 MOL1         0.0752
      19    C7      20.431498   19.429044   21.021467 C.3        1 MOL1        -0.1834
      20    H11     21.248016   20.150627   21.162189 H          1 MOL1         0.0752
      21    H12     20.879796   18.427665   21.053106 H          1 MOL1         0.0752
      22    C8      19.790220   19.645919   19.635892 C.3        1 MOL1        -0.2849
      23    H13     19.365002   20.654690   19.552738 H          1 MOL1         0.0764
      24    H14     20.537744   19.527019   18.840833 H          1 MOL1         0.0764
      25    H15     18.986841   18.919244   19.457308 H          1 MOL1         0.0764
@<TRIPOS>BOND
    1     1     2    1
    2     1     3    2
    3     1     4    1
    4     4     5    1
    5     4     6    1
    6     4     7    1
    7     7     8    1
    8     7     9    1
    9     7    10    1
   10    10    11    1
   11    10    12    1
   12    10    13    1
   13    13    14    1
   14    13    15    1
   15    13    16    1
   16    16    17    1
   17    16    18    1
   18    16    19    1
   19    19    20    1
   20    19    21    1
   21    19    22    1
   22    22    23    1
   23    22    24    1
   24    22    25    1
@<TRIPOS>SUBSTRUCTURE
       1 MOL1            1 RESIDUE      1      MOL     
@<SCITEGIC>MOL_PROPERTY
VM2 Rank
SciTegic.value.IntegerValue
101

@<SCITEGIC>MOL_PROPERTY
Conf_Id
SciTegic.value.IntegerValue
1010

@<SCITEGIC>MOL_PROPERTY
Probability
SciTegic.value.DoubleValue
0.01

@<SCITEGIC>MOL_PROPERTY
Sum Probability
SciTegic.value.DoubleValue
99.78

@<SCITEGIC>MOL_PROPERTY
Delta G
SciTegic.value.DoubleValue
4.582

@<SCITEGIC>MOL_PROPERTY
G
SciTegic.value.DoubleValue
-3.380

@<SCITEGIC>MOL_PROPERTY
E
SciTegic.value.DoubleValue
-28.383

@<SCITEGIC>MOL_PROPERTY
-TS
SciTegic.value.DoubleValue
25.003

@<SCITEGIC>MOL_PROPERTY
U+W
SciTegic.value.DoubleValue
-48.951

@<SCITEGIC>MOL_PROPERTY
U
SciTegic.value.DoubleValue
11.422

@<SCITEGIC>MOL_PROPERTY
W
SciTegic.value.DoubleValue
-60.373

@<SCITEGIC>MOL_PROPERTY
W(PB)
SciTegic.value.DoubleValue
-62.797

@<SCITEGIC>MOL_PROPERTY
W(SA)
SciTegic.value.DoubleValue
2.424

@<SCITEGIC>MOL_PROPERTY
Valence
SciTegic.value.DoubleValue
10.135

@<SCITEGIC>MOL_PROPERTY
Coulomb
SciTegic.value.DoubleValue
0.369

@<SCITEGIC>MOL_PROPERTY
VdW
SciTegic.value.DoubleValue
0.918

@<SCITEGIC>MOL_PROPERTY
VdW6
SciTegic.value.DoubleValue
-10.483

@<SCITEGIC>MOL_PROPERTY
VdW12
SciTegic.value.DoubleValue
11.400

@<SCITEGIC>MOL_PROPERTY
Bond
SciTegic.value.DoubleValue
0.245

@<SCITEGIC>MOL_PROPERTY
Angle
SciTegic.value.DoubleValue
3.539

@<SCITEGIC>MOL_PROPERTY
Pdih
SciTegic.value.DoubleValue
6.346

@<SCITEGIC>MOL_PROPERTY
Idih
SciTegic.value.DoubleValue
0.006

@<SCITEGIC>MOL_PROPERTY
Tether
SciTegic.value.DoubleValue
0.000

@<TRIPOS>MOLECULE
guest-8_vm2.mol2 : vm2 ligand conformer 102
          25          24           1
SMALL
USER_CHARGES
 
@<TRIPOS>ATOM
       1    C1      19.741665   19.049907   27.127363 C.2        1 MOL1         0.6168
       2    O1      20.443312   18.530781   27.972930 O.co2      1 MOL1        -0.6703
       3    O2      18.717249   19.652679   27.380323 O.co2      1 MOL1        -0.6703
       4    C2      20.183380   18.959469   25.671157 C.3        1 MOL1        -0.1963
       5    H1      19.279785   18.914745   25.052744 H          1 MOL1         0.0750
       6    H2      20.723155   18.014578   25.536984 H          1 MOL1         0.0750
       7    C3      21.074043   20.151752   25.239247 C.3        1 MOL1        -0.1860
       8    H3      20.494422   21.082018   25.316230 H          1 MOL1         0.0752
       9    H4      21.904573   20.247332   25.952330 H          1 MOL1         0.0752
      10    C4      21.663061   20.024399   23.811726 C.3        1 MOL1        -0.1858
      11    H5      22.322963   19.148080   23.751749 H          1 MOL1         0.0752
      12    H6      22.309102   20.896481   23.641306 H          1 MOL1         0.0752
      13    C5      20.604785   19.978548   22.680392 C.3        1 MOL1        -0.1858
      14    H7      19.692954   20.503809   22.995554 H          1 MOL1         0.0752
      15    H8      20.998683   20.536340   21.820834 H          1 MOL1         0.0752
      16    C6      20.266462   18.538938   22.218913 C.3        1 MOL1        -0.1858
      17    H9      19.990473   17.925121   23.084289 H          1 MOL1         0.0752
      18    H10     21.162600   18.072548   21.787541 H          1 MOL1         0.0752
      19    C7      19.111265   18.479962   21.192493 C.3        1 MOL1        -0.1834
      20    H11     18.865714   17.426785   20.998312 H          1 MOL1         0.0752
      21    H12     18.208814   18.934200   21.624393 H          1 MOL1         0.0752
      22    C8      19.447779   19.167564   19.851455 C.3        1 MOL1        -0.2849
      23    H13     18.633376   19.021330   19.130177 H          1 MOL1         0.0764
      24    H14     19.587569   20.248224   19.979584 H          1 MOL1         0.0764
      25    H15     20.364693   18.750384   19.415199 H          1 MOL1         0.0764
@<TRIPOS>BOND
    1     1     2    1
    2     1     3    2
    3     1     4    1
    4     4     5    1
    5     4     6    1
    6     4     7    1
    7     7     8    1
    8     7     9    1
    9     7    10    1
   10    10    11    1
   11    10    12    1
   12    10    13    1
   13    13    14    1
   14    13    15    1
   15    13    16    1
   16    16    17    1
   17    16    18    1
   18    16    19    1
   19    19    20    1
   20    19    21    1
   21    19    22    1
   22    22    23    1
   23    22    24    1
   24    22    25    1
@<TRIPOS>SUBSTRUCTURE
       1 MOL1            1 RESIDUE      1      MOL     
@<SCITEGIC>MOL_PROPERTY
VM2 Rank
SciTegic.value.IntegerValue
102

@<SCITEGIC>MOL_PROPERTY
Conf_Id
SciTegic.value.IntegerValue
254

@<SCITEGIC>MOL_PROPERTY
Probability
SciTegic.value.DoubleValue
0.01

@<SCITEGIC>MOL_PROPERTY
Sum Probability
SciTegic.value.DoubleValue
99.79

@<SCITEGIC>MOL_PROPERTY
Delta G
SciTegic.value.DoubleValue
4.639

@<SCITEGIC>MOL_PROPERTY
G
SciTegic.value.DoubleValue
-3.323

@<SCITEGIC>MOL_PROPERTY
E
SciTegic.value.DoubleValue
-28.244

@<SCITEGIC>MOL_PROPERTY
-TS
SciTegic.value.DoubleValue
24.920

@<SCITEGIC>MOL_PROPERTY
U+W
SciTegic.value.DoubleValue
-48.811

@<SCITEGIC>MOL_PROPERTY
U
SciTegic.value.DoubleValue
10.710

@<SCITEGIC>MOL_PROPERTY
W
SciTegic.value.DoubleValue
-59.521

@<SCITEGIC>MOL_PROPERTY
W(PB)
SciTegic.value.DoubleValue
-61.961

@<SCITEGIC>MOL_PROPERTY
W(SA)
SciTegic.value.DoubleValue
2.440

@<SCITEGIC>MOL_PROPERTY
Valence
SciTegic.value.DoubleValue
11.065

@<SCITEGIC>MOL_PROPERTY
Coulomb
SciTegic.value.DoubleValue
-1.442

@<SCITEGIC>MOL_PROPERTY
VdW
SciTegic.value.DoubleValue
1.087

@<SCITEGIC>MOL_PROPERTY
VdW6
SciTegic.value.DoubleValue
-9.992

@<SCITEGIC>MOL_PROPERTY
VdW12
SciTegic.value.DoubleValue
11.079

@<SCITEGIC>MOL_PROPERTY
Bond
SciTegic.value.DoubleValue
0.233

@<SCITEGIC>MOL_PROPERTY
Angle
SciTegic.value.DoubleValue
3.172

@<SCITEGIC>MOL_PROPERTY
Pdih
SciTegic.value.DoubleValue
7.658

@<SCITEGIC>MOL_PROPERTY
Idih
SciTegic.value.DoubleValue
0.001

@<SCITEGIC>MOL_PROPERTY
Tether
SciTegic.value.DoubleValue
0.000

@<TRIPOS>MOLECULE
guest-8_vm2.mol2 : vm2 ligand conformer 103
          25          24           1
SMALL
USER_CHARGES
 
@<TRIPOS>ATOM
       1    C1      20.386516   19.733878   26.737151 C.2        1 MOL1         0.6168
       2    O1      21.322447   20.475917   26.512121 O.co2      1 MOL1        -0.6703
       3    O2      19.351728   20.099195   27.260072 O.co2      1 MOL1        -0.6703
       4    C2      20.546924   18.251634   26.404814 C.3        1 MOL1        -0.1963
       5    H1      20.509171   17.715341   27.360013 H          1 MOL1         0.0750
       6    H2      21.548976   18.085923   25.991018 H          1 MOL1         0.0750
       7    C3      19.467561   17.665185   25.451920 C.3        1 MOL1        -0.1860
       8    H3      19.467952   16.573150   25.569595 H          1 MOL1         0.0752
       9    H4      18.469359   18.002249   25.764213 H          1 MOL1         0.0752
      10    C4      19.689023   17.978589   23.951332 C.3        1 MOL1        -0.1858
      11    H5      18.962039   17.396936   23.368320 H          1 MOL1         0.0752
      12    H6      20.683448   17.623944   23.650098 H          1 MOL1         0.0752
      13    C5      19.531071   19.475759   23.592528 C.3        1 MOL1        -0.1858
      14    H7      18.610091   19.860674   24.051390 H          1 MOL1         0.0752
      15    H8      20.359522   20.053836   24.021406 H          1 MOL1         0.0752
      16    C6      19.470811   19.737821   22.068766 C.3        1 MOL1        -0.1858
      17    H9      19.255919   20.802900   21.906759 H          1 MOL1         0.0752
      18    H10     18.630124   19.181487   21.632271 H          1 MOL1         0.0752
      19    C7      20.777975   19.370522   21.330740 C.3        1 MOL1        -0.1834
      20    H11     21.625648   19.889734   21.798912 H          1 MOL1         0.0752
      21    H12     20.972548   18.293661   21.420816 H          1 MOL1         0.0752
      22    C8      20.708944   19.745500   19.836556 C.3        1 MOL1        -0.2849
      23    H13     20.552675   20.824657   19.708777 H          1 MOL1         0.0764
      24    H14     21.642877   19.475819   19.326581 H          1 MOL1         0.0764
      25    H15     19.885533   19.218158   19.337306 H          1 MOL1         0.0764
@<TRIPOS>BOND
    1     1     2    1
    2     1     3    2
    3     1     4    1
    4     4     5    1
    5     4     6    1
    6     4     7    1
    7     7     8    1
    8     7     9    1
    9     7    10    1
   10    10    11    1
   11    10    12    1
   12    10    13    1
   13    13    14    1
   14    13    15    1
   15    13    16    1
   16    16    17    1
   17    16    18    1
   18    16    19    1
   19    19    20    1
   20    19    21    1
   21    19    22    1
   22    22    23    1
   23    22    24    1
   24    22    25    1
@<TRIPOS>SUBSTRUCTURE
       1 MOL1            1 RESIDUE      1      MOL     
@<SCITEGIC>MOL_PROPERTY
VM2 Rank
SciTegic.value.IntegerValue
103

@<SCITEGIC>MOL_PROPERTY
Conf_Id
SciTegic.value.IntegerValue
804

@<SCITEGIC>MOL_PROPERTY
Probability
SciTegic.value.DoubleValue
0.01

@<SCITEGIC>MOL_PROPERTY
Sum Probability
SciTegic.value.DoubleValue
99.80

@<SCITEGIC>MOL_PROPERTY
Delta G
SciTegic.value.DoubleValue
4.640

@<SCITEGIC>MOL_PROPERTY
G
SciTegic.value.DoubleValue
-3.322

@<SCITEGIC>MOL_PROPERTY
E
SciTegic.value.DoubleValue
-28.509

@<SCITEGIC>MOL_PROPERTY
-TS
SciTegic.value.DoubleValue
25.187

@<SCITEGIC>MOL_PROPERTY
U+W
SciTegic.value.DoubleValue
-49.077

@<SCITEGIC>MOL_PROPERTY
U
SciTegic.value.DoubleValue
11.400

@<SCITEGIC>MOL_PROPERTY
W
SciTegic.value.DoubleValue
-60.476

@<SCITEGIC>MOL_PROPERTY
W(PB)
SciTegic.value.DoubleValue
-62.899

@<SCITEGIC>MOL_PROPERTY
W(SA)
SciTegic.value.DoubleValue
2.422

@<SCITEGIC>MOL_PROPERTY
Valence
SciTegic.value.DoubleValue
9.920

@<SCITEGIC>MOL_PROPERTY
Coulomb
SciTegic.value.DoubleValue
0.703

@<SCITEGIC>MOL_PROPERTY
VdW
SciTegic.value.DoubleValue
0.777

@<SCITEGIC>MOL_PROPERTY
VdW6
SciTegic.value.DoubleValue
-10.717

@<SCITEGIC>MOL_PROPERTY
VdW12
SciTegic.value.DoubleValue
11.493

@<SCITEGIC>MOL_PROPERTY
Bond
SciTegic.value.DoubleValue
0.235

@<SCITEGIC>MOL_PROPERTY
Angle
SciTegic.value.DoubleValue
3.375

@<SCITEGIC>MOL_PROPERTY
Pdih
SciTegic.value.DoubleValue
6.305

@<SCITEGIC>MOL_PROPERTY
Idih
SciTegic.value.DoubleValue
0.006

@<SCITEGIC>MOL_PROPERTY
Tether
SciTegic.value.DoubleValue
0.000

@<TRIPOS>MOLECULE
guest-8_vm2.mol2 : vm2 ligand conformer 104
          25          24           1
SMALL
USER_CHARGES
 
@<TRIPOS>ATOM
       1    C1      20.323212   18.930556   26.893387 C.2        1 MOL1         0.6168
       2    O1      21.469109   19.239021   27.156783 O.co2      1 MOL1        -0.6703
       3    O2      19.901956   17.792705   26.964807 O.co2      1 MOL1        -0.6703
       4    C2      19.342705   20.038727   26.514158 C.3        1 MOL1        -0.1963
       5    H1      19.264438   20.692692   27.390333 H          1 MOL1         0.0750
       6    H2      18.349490   19.599584   26.361032 H          1 MOL1         0.0750
       7    C3      19.750690   20.893062   25.280768 C.3        1 MOL1        -0.1860
       8    H3      19.213107   21.849083   25.339662 H          1 MOL1         0.0752
       9    H4      20.819103   21.144319   25.334955 H          1 MOL1         0.0752
      10    C4      19.424142   20.254341   23.907693 C.3        1 MOL1        -0.1858
      11    H5      19.598409   21.015822   23.137435 H          1 MOL1         0.0752
      12    H6      18.355130   20.006246   23.860606 H          1 MOL1         0.0752
      13    C5      20.264854   18.995868   23.582373 C.3        1 MOL1        -0.1858
      14    H7      21.334393   19.223370   23.687732 H          1 MOL1         0.0752
      15    H8      20.039245   18.211454   24.314924 H          1 MOL1         0.0752
      16    C6      19.991726   18.417318   22.173099 C.3        1 MOL1        -0.1858
      17    H9      18.917119   18.220645   22.057488 H          1 MOL1         0.0752
      18    H10     20.494918   17.443794   22.095945 H          1 MOL1         0.0752
      19    C7      20.484739   19.324842   21.022980 C.3        1 MOL1        -0.1834
      20    H11     19.936674   20.275810   21.027160 H          1 MOL1         0.0752
      21    H12     21.546495   19.565872   21.170511 H          1 MOL1         0.0752
      22    C8      20.299867   18.647561   19.649952 C.3        1 MOL1        -0.2849
      23    H13     20.868057   17.709803   19.594169 H          1 MOL1         0.0764
      24    H14     19.242133   18.419306   19.464305 H          1 MOL1         0.0764
      25    H15     20.651331   19.304820   18.844016 H          1 MOL1         0.0764
@<TRIPOS>BOND
    1     1     2    1
    2     1     3    2
    3     1     4    1
    4     4     5    1
    5     4     6    1
    6     4     7    1
    7     7     8    1
    8     7     9    1
    9     7    10    1
   10    10    11    1
   11    10    12    1
   12    10    13    1
   13    13    14    1
   14    13    15    1
   15    13    16    1
   16    16    17    1
   17    16    18    1
   18    16    19    1
   19    19    20    1
   20    19    21    1
   21    19    22    1
   22    22    23    1
   23    22    24    1
   24    22    25    1
@<TRIPOS>SUBSTRUCTURE
       1 MOL1            1 RESIDUE      1      MOL     
@<SCITEGIC>MOL_PROPERTY
VM2 Rank
SciTegic.value.IntegerValue
104

@<SCITEGIC>MOL_PROPERTY
Conf_Id
SciTegic.value.IntegerValue
121

@<SCITEGIC>MOL_PROPERTY
Probability
SciTegic.value.DoubleValue
0.01

@<SCITEGIC>MOL_PROPERTY
Sum Probability
SciTegic.value.DoubleValue
99.81

@<SCITEGIC>MOL_PROPERTY
Delta G
SciTegic.value.DoubleValue
4.658

@<SCITEGIC>MOL_PROPERTY
G
SciTegic.value.DoubleValue
-3.305

@<SCITEGIC>MOL_PROPERTY
E
SciTegic.value.DoubleValue
-28.308

@<SCITEGIC>MOL_PROPERTY
-TS
SciTegic.value.DoubleValue
25.003

@<SCITEGIC>MOL_PROPERTY
U+W
SciTegic.value.DoubleValue
-48.875

@<SCITEGIC>MOL_PROPERTY
U
SciTegic.value.DoubleValue
11.423

@<SCITEGIC>MOL_PROPERTY
W
SciTegic.value.DoubleValue
-60.298

@<SCITEGIC>MOL_PROPERTY
W(PB)
SciTegic.value.DoubleValue
-62.736

@<SCITEGIC>MOL_PROPERTY
W(SA)
SciTegic.value.DoubleValue
2.438

@<SCITEGIC>MOL_PROPERTY
Valence
SciTegic.value.DoubleValue
10.135

@<SCITEGIC>MOL_PROPERTY
Coulomb
SciTegic.value.DoubleValue
0.370

@<SCITEGIC>MOL_PROPERTY
VdW
SciTegic.value.DoubleValue
0.918

@<SCITEGIC>MOL_PROPERTY
VdW6
SciTegic.value.DoubleValue
-10.483

@<SCITEGIC>MOL_PROPERTY
VdW12
SciTegic.value.DoubleValue
11.400

@<SCITEGIC>MOL_PROPERTY
Bond
SciTegic.value.DoubleValue
0.245

@<SCITEGIC>MOL_PROPERTY
Angle
SciTegic.value.DoubleValue
3.539

@<SCITEGIC>MOL_PROPERTY
Pdih
SciTegic.value.DoubleValue
6.346

@<SCITEGIC>MOL_PROPERTY
Idih
SciTegic.value.DoubleValue
0.006

@<SCITEGIC>MOL_PROPERTY
Tether
SciTegic.value.DoubleValue
0.000

@<TRIPOS>MOLECULE
guest-8_vm2.mol2 : vm2 ligand conformer 105
          25          24           1
SMALL
USER_CHARGES
 
@<TRIPOS>ATOM
       1    C1      20.010577   19.465719   26.980698 C.2        1 MOL1         0.6168
       2    O1      20.899343   19.914491   27.677992 O.co2      1 MOL1        -0.6703
       3    O2      18.916710   19.983506   26.869767 O.co2      1 MOL1        -0.6703
       4    C2      20.275041   18.164728   26.228029 C.3        1 MOL1        -0.1963
       5    H1      19.317647   17.755322   25.886888 H          1 MOL1         0.0750
       6    H2      20.677773   17.446517   26.951648 H          1 MOL1         0.0750
       7    C3      21.267094   18.307781   25.041240 C.3        1 MOL1        -0.1860
       8    H3      22.236992   18.643302   25.433707 H          1 MOL1         0.0752
       9    H4      21.441549   17.319118   24.595779 H          1 MOL1         0.0752
      10    C4      20.812198   19.291777   23.935084 C.3        1 MOL1        -0.1858
      11    H5      21.628422   19.381528   23.207165 H          1 MOL1         0.0752
      12    H6      20.667063   20.292562   24.364262 H          1 MOL1         0.0752
      13    C5      19.520721   18.846255   23.206418 C.3        1 MOL1        -0.1858
      14    H7      19.656391   17.840095   22.789258 H          1 MOL1         0.0752
      15    H8      18.702986   18.768667   23.934316 H          1 MOL1         0.0752
      16    C6      19.068975   19.825536   22.093213 C.3        1 MOL1        -0.1858
      17    H9      18.856541   20.803535   22.546183 H          1 MOL1         0.0752
      18    H10     18.115161   19.470120   21.680278 H          1 MOL1         0.0752
      19    C7      20.072097   20.021823   20.929258 C.3        1 MOL1        -0.1834
      20    H11     19.639968   20.733956   20.212910 H          1 MOL1         0.0752
      21    H12     20.995418   20.487558   21.297826 H          1 MOL1         0.0752
      22    C8      20.410246   18.712385   20.184302 C.3        1 MOL1        -0.2849
      23    H13     21.046436   18.918638   19.313971 H          1 MOL1         0.0764
      24    H14     20.951915   18.013202   20.833775 H          1 MOL1         0.0764
      25    H15     19.498238   18.216458   19.827558 H          1 MOL1         0.0764
@<TRIPOS>BOND
    1     1     2    1
    2     1     3    2
    3     1     4    1
    4     4     5    1
    5     4     6    1
    6     4     7    1
    7     7     8    1
    8     7     9    1
    9     7    10    1
   10    10    11    1
   11    10    12    1
   12    10    13    1
   13    13    14    1
   14    13    15    1
   15    13    16    1
   16    16    17    1
   17    16    18    1
   18    16    19    1
   19    19    20    1
   20    19    21    1
   21    19    22    1
   22    22    23    1
   23    22    24    1
   24    22    25    1
@<TRIPOS>SUBSTRUCTURE
       1 MOL1            1 RESIDUE      1      MOL     
@<SCITEGIC>MOL_PROPERTY
VM2 Rank
SciTegic.value.IntegerValue
105

@<SCITEGIC>MOL_PROPERTY
Conf_Id
SciTegic.value.IntegerValue
187

@<SCITEGIC>MOL_PROPERTY
Probability
SciTegic.value.DoubleValue
0.01

@<SCITEGIC>MOL_PROPERTY
Sum Probability
SciTegic.value.DoubleValue
99.82

@<SCITEGIC>MOL_PROPERTY
Delta G
SciTegic.value.DoubleValue
4.660

@<SCITEGIC>MOL_PROPERTY
G
SciTegic.value.DoubleValue
-3.302

@<SCITEGIC>MOL_PROPERTY
E
SciTegic.value.DoubleValue
-28.505

@<SCITEGIC>MOL_PROPERTY
-TS
SciTegic.value.DoubleValue
25.203

@<SCITEGIC>MOL_PROPERTY
U+W
SciTegic.value.DoubleValue
-49.073

@<SCITEGIC>MOL_PROPERTY
U
SciTegic.value.DoubleValue
11.036

@<SCITEGIC>MOL_PROPERTY
W
SciTegic.value.DoubleValue
-60.109

@<SCITEGIC>MOL_PROPERTY
W(PB)
SciTegic.value.DoubleValue
-62.507

@<SCITEGIC>MOL_PROPERTY
W(SA)
SciTegic.value.DoubleValue
2.399

@<SCITEGIC>MOL_PROPERTY
Valence
SciTegic.value.DoubleValue
9.325

@<SCITEGIC>MOL_PROPERTY
Coulomb
SciTegic.value.DoubleValue
0.928

@<SCITEGIC>MOL_PROPERTY
VdW
SciTegic.value.DoubleValue
0.783

@<SCITEGIC>MOL_PROPERTY
VdW6
SciTegic.value.DoubleValue
-11.027

@<SCITEGIC>MOL_PROPERTY
VdW12
SciTegic.value.DoubleValue
11.810

@<SCITEGIC>MOL_PROPERTY
Bond
SciTegic.value.DoubleValue
0.268

@<SCITEGIC>MOL_PROPERTY
Angle
SciTegic.value.DoubleValue
3.515

@<SCITEGIC>MOL_PROPERTY
Pdih
SciTegic.value.DoubleValue
5.540

@<SCITEGIC>MOL_PROPERTY
Idih
SciTegic.value.DoubleValue
0.001

@<SCITEGIC>MOL_PROPERTY
Tether
SciTegic.value.DoubleValue
0.000

@<TRIPOS>MOLECULE
guest-8_vm2.mol2 : vm2 ligand conformer 106
          25          24           1
SMALL
USER_CHARGES
 
@<TRIPOS>ATOM
       1    C1      20.596114   19.104047   27.117517 C.2        1 MOL1         0.6168
       2    O1      21.541739   19.831721   27.347809 O.co2      1 MOL1        -0.6703
       3    O2      19.985224   18.501681   27.978187 O.co2      1 MOL1        -0.6703
       4    C2      20.136072   18.956480   25.671691 C.3        1 MOL1        -0.1963
       5    H1      19.717064   17.950776   25.548513 H          1 MOL1         0.0750
       6    H2      21.023648   19.025412   25.032647 H          1 MOL1         0.0750
       7    C3      19.092239   20.026076   25.262125 C.3        1 MOL1        -0.1860
       8    H3      18.272911   20.017010   25.994260 H          1 MOL1         0.0752
       9    H4      19.551325   21.022217   25.327128 H          1 MOL1         0.0752
      10    C4      18.491342   19.823278   23.848344 C.3        1 MOL1        -0.1858
      11    H5      17.736574   20.606528   23.694120 H          1 MOL1         0.0752
      12    H6      17.946211   18.870541   23.802274 H          1 MOL1         0.0752
      13    C5      19.520609   19.909830   22.692886 C.3        1 MOL1        -0.1858
      14    H7      19.039696   20.412076   21.843417 H          1 MOL1         0.0752
      15    H8      20.365757   20.546588   22.987714 H          1 MOL1         0.0752
      16    C6      20.027441   18.523827   22.221698 C.3        1 MOL1        -0.1858
      17    H9      19.187733   17.947272   21.810437 H          1 MOL1         0.0752
      18    H10     20.398657   17.951118   23.079613 H          1 MOL1         0.0752
      19    C7      21.156869   18.609759   21.168846 C.3        1 MOL1        -0.1834
      20    H11     22.004396   19.175041   21.580477 H          1 MOL1         0.0752
      21    H12     21.528996   17.595763   20.967561 H          1 MOL1         0.0752
      22    C8      20.705351   19.247300   19.836896 C.3        1 MOL1        -0.2849
      23    H13     20.433109   20.301822   19.969741 H          1 MOL1         0.0764
      24    H14     21.514865   19.204068   19.096832 H          1 MOL1         0.0764
      25    H15     19.838700   18.716935   19.421301 H          1 MOL1         0.0764
@<TRIPOS>BOND
    1     1     2    1
    2     1     3    2
    3     1     4    1
    4     4     5    1
    5     4     6    1
    6     4     7    1
    7     7     8    1
    8     7     9    1
    9     7    10    1
   10    10    11    1
   11    10    12    1
   12    10    13    1
   13    13    14    1
   14    13    15    1
   15    13    16    1
   16    16    17    1
   17    16    18    1
   18    16    19    1
   19    19    20    1
   20    19    21    1
   21    19    22    1
   22    22    23    1
   23    22    24    1
   24    22    25    1
@<TRIPOS>SUBSTRUCTURE
       1 MOL1            1 RESIDUE      1      MOL     
@<SCITEGIC>MOL_PROPERTY
VM2 Rank
SciTegic.value.IntegerValue
106

@<SCITEGIC>MOL_PROPERTY
Conf_Id
SciTegic.value.IntegerValue
503

@<SCITEGIC>MOL_PROPERTY
Probability
SciTegic.value.DoubleValue
0.01

@<SCITEGIC>MOL_PROPERTY
Sum Probability
SciTegic.value.DoubleValue
99.83

@<SCITEGIC>MOL_PROPERTY
Delta G
SciTegic.value.DoubleValue
4.661

@<SCITEGIC>MOL_PROPERTY
G
SciTegic.value.DoubleValue
-3.301

@<SCITEGIC>MOL_PROPERTY
E
SciTegic.value.DoubleValue
-28.221

@<SCITEGIC>MOL_PROPERTY
-TS
SciTegic.value.DoubleValue
24.920

@<SCITEGIC>MOL_PROPERTY
U+W
SciTegic.value.DoubleValue
-48.788

@<SCITEGIC>MOL_PROPERTY
U
SciTegic.value.DoubleValue
10.710

@<SCITEGIC>MOL_PROPERTY
W
SciTegic.value.DoubleValue
-59.498

@<SCITEGIC>MOL_PROPERTY
W(PB)
SciTegic.value.DoubleValue
-61.911

@<SCITEGIC>MOL_PROPERTY
W(SA)
SciTegic.value.DoubleValue
2.413

@<SCITEGIC>MOL_PROPERTY
Valence
SciTegic.value.DoubleValue
11.065

@<SCITEGIC>MOL_PROPERTY
Coulomb
SciTegic.value.DoubleValue
-1.442

@<SCITEGIC>MOL_PROPERTY
VdW
SciTegic.value.DoubleValue
1.087

@<SCITEGIC>MOL_PROPERTY
VdW6
SciTegic.value.DoubleValue
-9.992

@<SCITEGIC>MOL_PROPERTY
VdW12
SciTegic.value.DoubleValue
11.079

@<SCITEGIC>MOL_PROPERTY
Bond
SciTegic.value.DoubleValue
0.233

@<SCITEGIC>MOL_PROPERTY
Angle
SciTegic.value.DoubleValue
3.173

@<SCITEGIC>MOL_PROPERTY
Pdih
SciTegic.value.DoubleValue
7.658

@<SCITEGIC>MOL_PROPERTY
Idih
SciTegic.value.DoubleValue
0.001

@<SCITEGIC>MOL_PROPERTY
Tether
SciTegic.value.DoubleValue
0.000

@<TRIPOS>MOLECULE
guest-8_vm2.mol2 : vm2 ligand conformer 107
          25          24           1
SMALL
USER_CHARGES
 
@<TRIPOS>ATOM
       1    C1      19.555011   19.062925   26.503623 C.2        1 MOL1         0.6168
       2    O1      19.589376   17.857403   26.655988 O.co2      1 MOL1        -0.6703
       3    O2      18.524446   19.692678   26.367281 O.co2      1 MOL1        -0.6703
       4    C2      20.870205   19.838120   26.557353 C.3        1 MOL1        -0.1963
       5    H1      21.271980   19.693346   27.566842 H          1 MOL1         0.0750
       6    H2      20.657245   20.909065   26.454878 H          1 MOL1         0.0750
       7    C3      21.941244   19.400189   25.519026 C.3        1 MOL1        -0.1860
       8    H3      22.921484   19.741551   25.878196 H          1 MOL1         0.0752
       9    H4      21.998966   18.303478   25.480490 H          1 MOL1         0.0752
      10    C4      21.736001   19.971350   24.093978 C.3        1 MOL1        -0.1858
      11    H5      22.621462   19.720376   23.494024 H          1 MOL1         0.0752
      12    H6      21.693792   21.068189   24.138121 H          1 MOL1         0.0752
      13    C5      20.479647   19.431563   23.373496 C.3        1 MOL1        -0.1858
      14    H7      20.472874   18.335307   23.430774 H          1 MOL1         0.0752
      15    H8      19.575772   19.787178   23.883761 H          1 MOL1         0.0752
      16    C6      20.432386   19.883939   21.895457 C.3        1 MOL1        -0.1858
      17    H9      21.302871   19.484529   21.357385 H          1 MOL1         0.0752
      18    H10     20.516207   20.978549   21.854666 H          1 MOL1         0.0752
      19    C7      19.135902   19.462785   21.165130 C.3        1 MOL1        -0.1834
      20    H11     18.263237   19.867166   21.696510 H          1 MOL1         0.0752
      21    H12     19.129802   19.919105   20.165679 H          1 MOL1         0.0752
      22    C8      18.988782   17.933048   21.014669 C.3        1 MOL1        -0.2849
      23    H13     18.874552   17.444297   21.990410 H          1 MOL1         0.0764
      24    H14     18.101827   17.689720   20.415541 H          1 MOL1         0.0764
      25    H15     19.864640   17.501366   20.513087 H          1 MOL1         0.0764
@<TRIPOS>BOND
    1     1     2    1
    2     1     3    2
    3     1     4    1
    4     4     5    1
    5     4     6    1
    6     4     7    1
    7     7     8    1
    8     7     9    1
    9     7    10    1
   10    10    11    1
   11    10    12    1
   12    10    13    1
   13    13    14    1
   14    13    15    1
   15    13    16    1
   16    16    17    1
   17    16    18    1
   18    16    19    1
   19    19    20    1
   20    19    21    1
   21    19    22    1
   22    22    23    1
   23    22    24    1
   24    22    25    1
@<TRIPOS>SUBSTRUCTURE
       1 MOL1            1 RESIDUE      1      MOL     
@<SCITEGIC>MOL_PROPERTY
VM2 Rank
SciTegic.value.IntegerValue
107

@<SCITEGIC>MOL_PROPERTY
Conf_Id
SciTegic.value.IntegerValue
227

@<SCITEGIC>MOL_PROPERTY
Probability
SciTegic.value.DoubleValue
0.01

@<SCITEGIC>MOL_PROPERTY
Sum Probability
SciTegic.value.DoubleValue
99.84

@<SCITEGIC>MOL_PROPERTY
Delta G
SciTegic.value.DoubleValue
4.663

@<SCITEGIC>MOL_PROPERTY
G
SciTegic.value.DoubleValue
-3.300

@<SCITEGIC>MOL_PROPERTY
E
SciTegic.value.DoubleValue
-28.441

@<SCITEGIC>MOL_PROPERTY
-TS
SciTegic.value.DoubleValue
25.141

@<SCITEGIC>MOL_PROPERTY
U+W
SciTegic.value.DoubleValue
-49.009

@<SCITEGIC>MOL_PROPERTY
U
SciTegic.value.DoubleValue
12.313

@<SCITEGIC>MOL_PROPERTY
W
SciTegic.value.DoubleValue
-61.322

@<SCITEGIC>MOL_PROPERTY
W(PB)
SciTegic.value.DoubleValue
-63.723

@<SCITEGIC>MOL_PROPERTY
W(SA)
SciTegic.value.DoubleValue
2.402

@<SCITEGIC>MOL_PROPERTY
Valence
SciTegic.value.DoubleValue
9.950

@<SCITEGIC>MOL_PROPERTY
Coulomb
SciTegic.value.DoubleValue
1.612

@<SCITEGIC>MOL_PROPERTY
VdW
SciTegic.value.DoubleValue
0.751

@<SCITEGIC>MOL_PROPERTY
VdW6
SciTegic.value.DoubleValue
-10.687

@<SCITEGIC>MOL_PROPERTY
VdW12
SciTegic.value.DoubleValue
11.438

@<SCITEGIC>MOL_PROPERTY
Bond
SciTegic.value.DoubleValue
0.232

@<SCITEGIC>MOL_PROPERTY
Angle
SciTegic.value.DoubleValue
3.418

@<SCITEGIC>MOL_PROPERTY
Pdih
SciTegic.value.DoubleValue
6.293

@<SCITEGIC>MOL_PROPERTY
Idih
SciTegic.value.DoubleValue
0.007

@<SCITEGIC>MOL_PROPERTY
Tether
SciTegic.value.DoubleValue
0.000

@<TRIPOS>MOLECULE
guest-8_vm2.mol2 : vm2 ligand conformer 108
          25          24           1
SMALL
USER_CHARGES
 
@<TRIPOS>ATOM
       1    C1      19.974991   19.545625   27.377843 C.2        1 MOL1         0.6168
       2    O1      21.042391   19.648070   27.949599 O.co2      1 MOL1        -0.6703
       3    O2      18.928934   19.297956   27.944580 O.co2      1 MOL1        -0.6703
       4    C2      19.950444   19.714202   25.862935 C.3        1 MOL1        -0.1963
       5    H1      20.719755   20.447661   25.596247 H          1 MOL1         0.0750
       6    H2      18.980674   20.143258   25.583973 H          1 MOL1         0.0750
       7    C3      20.182523   18.380170   25.107012 C.3        1 MOL1        -0.1860
       8    H3      21.173719   17.981117   25.363047 H          1 MOL1         0.0752
       9    H4      19.450081   17.641324   25.460569 H          1 MOL1         0.0752
      10    C4      20.052465   18.512405   23.570946 C.3        1 MOL1        -0.1858
      11    H5      19.051345   18.891011   23.327518 H          1 MOL1         0.0752
      12    H6      20.131072   17.511721   23.124842 H          1 MOL1         0.0752
      13    C5      21.125955   19.432056   22.942847 C.3        1 MOL1        -0.1858
      14    H7      20.958736   20.469496   23.260653 H          1 MOL1         0.0752
      15    H8      22.112532   19.144330   23.330816 H          1 MOL1         0.0752
      16    C6      21.178765   19.380907   21.395093 C.3        1 MOL1        -0.1858
      17    H9      21.429073   18.365496   21.058758 H          1 MOL1         0.0752
      18    H10     22.015265   20.016076   21.073104 H          1 MOL1         0.0752
      19    C7      19.895304   19.880690   20.685674 C.3        1 MOL1        -0.1834
      20    H11     19.384169   20.629574   21.306279 H          1 MOL1         0.0752
      21    H12     20.185367   20.397506   19.760443 H          1 MOL1         0.0752
      22    C8      18.921228   18.741918   20.309473 C.3        1 MOL1        -0.2849
      23    H13     18.566817   18.198732   21.192604 H          1 MOL1         0.0764
      24    H14     18.042282   19.145086   19.790141 H          1 MOL1         0.0764
      25    H15     19.405036   18.019854   19.638962 H          1 MOL1         0.0764
@<TRIPOS>BOND
    1     1     2    1
    2     1     3    2
    3     1     4    1
    4     4     5    1
    5     4     6    1
    6     4     7    1
    7     7     8    1
    8     7     9    1
    9     7    10    1
   10    10    11    1
   11    10    12    1
   12    10    13    1
   13    13    14    1
   14    13    15    1
   15    13    16    1
   16    16    17    1
   17    16    18    1
   18    16    19    1
   19    19    20    1
   20    19    21    1
   21    19    22    1
   22    22    23    1
   23    22    24    1
   24    22    25    1
@<TRIPOS>SUBSTRUCTURE
       1 MOL1            1 RESIDUE      1      MOL     
@<SCITEGIC>MOL_PROPERTY
VM2 Rank
SciTegic.value.IntegerValue
108

@<SCITEGIC>MOL_PROPERTY
Conf_Id
SciTegic.value.IntegerValue
502

@<SCITEGIC>MOL_PROPERTY
Probability
SciTegic.value.DoubleValue
0.01

@<SCITEGIC>MOL_PROPERTY
Sum Probability
SciTegic.value.DoubleValue
99.85

@<SCITEGIC>MOL_PROPERTY
Delta G
SciTegic.value.DoubleValue
4.697

@<SCITEGIC>MOL_PROPERTY
G
SciTegic.value.DoubleValue
-3.265

@<SCITEGIC>MOL_PROPERTY
E
SciTegic.value.DoubleValue
-28.121

@<SCITEGIC>MOL_PROPERTY
-TS
SciTegic.value.DoubleValue
24.856

@<SCITEGIC>MOL_PROPERTY
U+W
SciTegic.value.DoubleValue
-48.689

@<SCITEGIC>MOL_PROPERTY
U
SciTegic.value.DoubleValue
10.438

@<SCITEGIC>MOL_PROPERTY
W
SciTegic.value.DoubleValue
-59.127

@<SCITEGIC>MOL_PROPERTY
W(PB)
SciTegic.value.DoubleValue
-61.577

@<SCITEGIC>MOL_PROPERTY
W(SA)
SciTegic.value.DoubleValue
2.450

@<SCITEGIC>MOL_PROPERTY
Valence
SciTegic.value.DoubleValue
10.999

@<SCITEGIC>MOL_PROPERTY
Coulomb
SciTegic.value.DoubleValue
-1.665

@<SCITEGIC>MOL_PROPERTY
VdW
SciTegic.value.DoubleValue
1.104

@<SCITEGIC>MOL_PROPERTY
VdW6
SciTegic.value.DoubleValue
-9.904

@<SCITEGIC>MOL_PROPERTY
VdW12
SciTegic.value.DoubleValue
11.008

@<SCITEGIC>MOL_PROPERTY
Bond
SciTegic.value.DoubleValue
0.232

@<SCITEGIC>MOL_PROPERTY
Angle
SciTegic.value.DoubleValue
3.215

@<SCITEGIC>MOL_PROPERTY
Pdih
SciTegic.value.DoubleValue
7.551

@<SCITEGIC>MOL_PROPERTY
Idih
SciTegic.value.DoubleValue
0.001

@<SCITEGIC>MOL_PROPERTY
Tether
SciTegic.value.DoubleValue
0.000

@<TRIPOS>MOLECULE
guest-8_vm2.mol2 : vm2 ligand conformer 109
          25          24           1
SMALL
USER_CHARGES
 
@<TRIPOS>ATOM
       1    C1      20.139492   18.894183   27.255669 C.2        1 MOL1         0.6168
       2    O1      21.165222   18.617133   27.845492 O.co2      1 MOL1        -0.6703
       3    O2      19.104731   19.202470   27.813319 O.co2      1 MOL1        -0.6703
       4    C2      20.158338   18.875809   25.731445 C.3        1 MOL1        -0.1963
       5    H1      19.163929   18.567783   25.389826 H          1 MOL1         0.0750
       6    H2      20.866787   18.103303   25.409380 H          1 MOL1         0.0750
       7    C3      20.547570   20.246824   25.119828 C.3        1 MOL1        -0.1860
       8    H3      19.805819   21.003531   25.410417 H          1 MOL1         0.0752
       9    H4      21.504365   20.567226   25.554899 H          1 MOL1         0.0752
      10    C4      20.689868   20.215564   23.579544 C.3        1 MOL1        -0.1858
      11    H5      21.433458   19.459874   23.300080 H          1 MOL1         0.0752
      12    H6      21.095935   21.181292   23.249297 H          1 MOL1         0.0752
      13    C5      19.350286   19.959796   22.844362 C.3        1 MOL1        -0.1858
      14    H7      18.914497   18.999115   23.146741 H          1 MOL1         0.0752
      15    H8      18.635892   20.733222   23.157602 H          1 MOL1         0.0752
      16    C6      19.480514   20.007910   21.300461 C.3        1 MOL1        -0.1858
      17    H9      20.296643   20.681961   21.006708 H          1 MOL1         0.0752
      18    H10     18.563329   20.455890   20.894359 H          1 MOL1         0.0752
      19    C7      19.662723   18.626546   20.623903 C.3        1 MOL1        -0.1834
      20    H11     18.794322   17.990917   20.845435 H          1 MOL1         0.0752
      21    H12     19.668315   18.769995   19.534620 H          1 MOL1         0.0752
      22    C8      20.954255   17.887764   21.031978 C.3        1 MOL1        -0.2849
      23    H13     21.835875   18.525342   20.886455 H          1 MOL1         0.0764
      24    H14     20.916745   17.577838   22.083719 H          1 MOL1         0.0764
      25    H15     21.086625   16.982554   20.425512 H          1 MOL1         0.0764
@<TRIPOS>BOND
    1     1     2    1
    2     1     3    2
    3     1     4    1
    4     4     5    1
    5     4     6    1
    6     4     7    1
    7     7     8    1
    8     7     9    1
    9     7    10    1
   10    10    11    1
   11    10    12    1
   12    10    13    1
   13    13    14    1
   14    13    15    1
   15    13    16    1
   16    16    17    1
   17    16    18    1
   18    16    19    1
   19    19    20    1
   20    19    21    1
   21    19    22    1
   22    22    23    1
   23    22    24    1
   24    22    25    1
@<TRIPOS>SUBSTRUCTURE
       1 MOL1            1 RESIDUE      1      MOL     
@<SCITEGIC>MOL_PROPERTY
VM2 Rank
SciTegic.value.IntegerValue
109

@<SCITEGIC>MOL_PROPERTY
Conf_Id
SciTegic.value.IntegerValue
533

@<SCITEGIC>MOL_PROPERTY
Probability
SciTegic.value.DoubleValue
0.01

@<SCITEGIC>MOL_PROPERTY
Sum Probability
SciTegic.value.DoubleValue
99.86

@<SCITEGIC>MOL_PROPERTY
Delta G
SciTegic.value.DoubleValue
4.713

@<SCITEGIC>MOL_PROPERTY
G
SciTegic.value.DoubleValue
-3.249

@<SCITEGIC>MOL_PROPERTY
E
SciTegic.value.DoubleValue
-28.060

@<SCITEGIC>MOL_PROPERTY
-TS
SciTegic.value.DoubleValue
24.811

@<SCITEGIC>MOL_PROPERTY
U+W
SciTegic.value.DoubleValue
-48.627

@<SCITEGIC>MOL_PROPERTY
U
SciTegic.value.DoubleValue
10.664

@<SCITEGIC>MOL_PROPERTY
W
SciTegic.value.DoubleValue
-59.291

@<SCITEGIC>MOL_PROPERTY
W(PB)
SciTegic.value.DoubleValue
-61.726

@<SCITEGIC>MOL_PROPERTY
W(SA)
SciTegic.value.DoubleValue
2.435

@<SCITEGIC>MOL_PROPERTY
Valence
SciTegic.value.DoubleValue
11.014

@<SCITEGIC>MOL_PROPERTY
Coulomb
SciTegic.value.DoubleValue
-1.402

@<SCITEGIC>MOL_PROPERTY
VdW
SciTegic.value.DoubleValue
1.052

@<SCITEGIC>MOL_PROPERTY
VdW6
SciTegic.value.DoubleValue
-9.993

@<SCITEGIC>MOL_PROPERTY
VdW12
SciTegic.value.DoubleValue
11.045

@<SCITEGIC>MOL_PROPERTY
Bond
SciTegic.value.DoubleValue
0.241

@<SCITEGIC>MOL_PROPERTY
Angle
SciTegic.value.DoubleValue
3.227

@<SCITEGIC>MOL_PROPERTY
Pdih
SciTegic.value.DoubleValue
7.545

@<SCITEGIC>MOL_PROPERTY
Idih
SciTegic.value.DoubleValue
0.001

@<SCITEGIC>MOL_PROPERTY
Tether
SciTegic.value.DoubleValue
0.000

@<TRIPOS>MOLECULE
guest-8_vm2.mol2 : vm2 ligand conformer 110
          25          24           1
SMALL
USER_CHARGES
 
@<TRIPOS>ATOM
       1    C1      20.224049   18.899575   27.254766 C.2        1 MOL1         0.6168
       2    O1      21.224382   19.336392   27.788873 O.co2      1 MOL1        -0.6703
       3    O2      19.255157   18.496617   27.867662 O.co2      1 MOL1        -0.6703
       4    C2      20.172598   18.876664   25.731356 C.3        1 MOL1        -0.1963
       5    H1      19.559904   18.020569   25.424606 H          1 MOL1         0.0750
       6    H2      21.189765   18.695860   25.366508 H          1 MOL1         0.0750
       7    C3      19.599765   20.186783   25.130769 C.3        1 MOL1        -0.1860
       8    H3      18.620465   20.384722   25.588146 H          1 MOL1         0.0752
       9    H4      20.246724   21.031360   25.405312 H          1 MOL1         0.0752
      10    C4      19.427233   20.135536   23.594114 C.3        1 MOL1        -0.1858
      11    H5      18.895254   21.041910   23.274635 H          1 MOL1         0.0752
      12    H6      18.778574   19.291758   23.330723 H          1 MOL1         0.0752
      13    C5      20.771154   20.049485   22.828045 C.3        1 MOL1        -0.1858
      14    H7      21.389481   20.907111   23.126063 H          1 MOL1         0.0752
      15    H8      21.331230   19.151712   23.118859 H          1 MOL1         0.0752
      16    C6      20.600577   20.078781   21.287609 C.3        1 MOL1        -0.1858
      17    H9      21.444515   20.638147   20.861331 H          1 MOL1         0.0752
      18    H10     19.699562   20.644319   21.013672 H          1 MOL1         0.0752
      19    C7      20.578308   18.684583   20.613216 C.3        1 MOL1        -0.1834
      20    H11     20.529737   18.824757   19.524575 H          1 MOL1         0.0752
      21    H12     21.524682   18.163658   20.813800 H          1 MOL1         0.0752
      22    C8      19.399777   17.789585   21.049589 C.3        1 MOL1        -0.2849
      23    H13     18.441788   18.310877   20.925299 H          1 MOL1         0.0764
      24    H14     19.368587   16.874115   20.444881 H          1 MOL1         0.0764
      25    H15     19.500105   17.488235   22.099705 H          1 MOL1         0.0764
@<TRIPOS>BOND
    1     1     2    1
    2     1     3    2
    3     1     4    1
    4     4     5    1
    5     4     6    1
    6     4     7    1
    7     7     8    1
    8     7     9    1
    9     7    10    1
   10    10    11    1
   11    10    12    1
   12    10    13    1
   13    13    14    1
   14    13    15    1
   15    13    16    1
   16    16    17    1
   17    16    18    1
   18    16    19    1
   19    19    20    1
   20    19    21    1
   21    19    22    1
   22    22    23    1
   23    22    24    1
   24    22    25    1
@<TRIPOS>SUBSTRUCTURE
       1 MOL1            1 RESIDUE      1      MOL     
@<SCITEGIC>MOL_PROPERTY
VM2 Rank
SciTegic.value.IntegerValue
110

@<SCITEGIC>MOL_PROPERTY
Conf_Id
SciTegic.value.IntegerValue
506

@<SCITEGIC>MOL_PROPERTY
Probability
SciTegic.value.DoubleValue
0.01

@<SCITEGIC>MOL_PROPERTY
Sum Probability
SciTegic.value.DoubleValue
99.87

@<SCITEGIC>MOL_PROPERTY
Delta G
SciTegic.value.DoubleValue
4.730

@<SCITEGIC>MOL_PROPERTY
G
SciTegic.value.DoubleValue
-3.232

@<SCITEGIC>MOL_PROPERTY
E
SciTegic.value.DoubleValue
-28.043

@<SCITEGIC>MOL_PROPERTY
-TS
SciTegic.value.DoubleValue
24.811

@<SCITEGIC>MOL_PROPERTY
U+W
SciTegic.value.DoubleValue
-48.610

@<SCITEGIC>MOL_PROPERTY
U
SciTegic.value.DoubleValue
10.664

@<SCITEGIC>MOL_PROPERTY
W
SciTegic.value.DoubleValue
-59.274

@<SCITEGIC>MOL_PROPERTY
W(PB)
SciTegic.value.DoubleValue
-61.731

@<SCITEGIC>MOL_PROPERTY
W(SA)
SciTegic.value.DoubleValue
2.457

@<SCITEGIC>MOL_PROPERTY
Valence
SciTegic.value.DoubleValue
11.014

@<SCITEGIC>MOL_PROPERTY
Coulomb
SciTegic.value.DoubleValue
-1.402

@<SCITEGIC>MOL_PROPERTY
VdW
SciTegic.value.DoubleValue
1.052

@<SCITEGIC>MOL_PROPERTY
VdW6
SciTegic.value.DoubleValue
-9.993

@<SCITEGIC>MOL_PROPERTY
VdW12
SciTegic.value.DoubleValue
11.045

@<SCITEGIC>MOL_PROPERTY
Bond
SciTegic.value.DoubleValue
0.241

@<SCITEGIC>MOL_PROPERTY
Angle
SciTegic.value.DoubleValue
3.227

@<SCITEGIC>MOL_PROPERTY
Pdih
SciTegic.value.DoubleValue
7.545

@<SCITEGIC>MOL_PROPERTY
Idih
SciTegic.value.DoubleValue
0.001

@<SCITEGIC>MOL_PROPERTY
Tether
SciTegic.value.DoubleValue
0.000

@<TRIPOS>MOLECULE
guest-8_vm2.mol2 : vm2 ligand conformer 111
          25          24           1
SMALL
USER_CHARGES
 
@<TRIPOS>ATOM
       1    C1      20.285721   19.383578   27.430656 C.2        1 MOL1         0.6168
       2    O1      21.373693   19.851291   27.703232 O.co2      1 MOL1        -0.6703
       3    O2      19.624655   18.720967   28.205715 O.co2      1 MOL1        -0.6703
       4    C2      19.729480   19.621725   26.031377 C.3        1 MOL1        -0.1963
       5    H1      20.072878   20.608133   25.699907 H          1 MOL1         0.0750
       6    H2      18.636100   19.663935   26.102589 H          1 MOL1         0.0750
       7    C3      20.158151   18.525789   25.021306 C.3        1 MOL1        -0.1860
       8    H3      21.252613   18.524480   24.924099 H          1 MOL1         0.0752
       9    H4      19.882038   17.543233   25.428405 H          1 MOL1         0.0752
      10    C4      19.510796   18.683348   23.624833 C.3        1 MOL1        -0.1858
      11    H5      18.416944   18.667154   23.724325 H          1 MOL1         0.0752
      12    H6      19.774583   17.806707   23.021406 H          1 MOL1         0.0752
      13    C5      19.944014   19.975877   22.889293 C.3        1 MOL1        -0.1858
      14    H7      19.560319   20.840628   23.445933 H          1 MOL1         0.0752
      15    H8      21.038543   20.068859   22.892075 H          1 MOL1         0.0752
      16    C6      19.407664   20.061029   21.437549 C.3        1 MOL1        -0.1858
      17    H9      19.153399   21.109026   21.227956 H          1 MOL1         0.0752
      18    H10     18.466680   19.501593   21.345477 H          1 MOL1         0.0752
      19    C7      20.410585   19.598940   20.351460 C.3        1 MOL1        -0.1834
      20    H11     19.963454   19.778832   19.364107 H          1 MOL1         0.0752
      21    H12     21.314738   20.221558   20.397201 H          1 MOL1         0.0752
      22    C8      20.808241   18.111458   20.450580 C.3        1 MOL1        -0.2849
      23    H13     19.920255   17.466247   20.461124 H          1 MOL1         0.0764
      24    H14     21.427453   17.821512   19.591944 H          1 MOL1         0.0764
      25    H15     21.391442   17.917558   21.359497 H          1 MOL1         0.0764
@<TRIPOS>BOND
    1     1     2    1
    2     1     3    2
    3     1     4    1
    4     4     5    1
    5     4     6    1
    6     4     7    1
    7     7     8    1
    8     7     9    1
    9     7    10    1
   10    10    11    1
   11    10    12    1
   12    10    13    1
   13    13    14    1
   14    13    15    1
   15    13    16    1
   16    16    17    1
   17    16    18    1
   18    16    19    1
   19    19    20    1
   20    19    21    1
   21    19    22    1
   22    22    23    1
   23    22    24    1
   24    22    25    1
@<TRIPOS>SUBSTRUCTURE
       1 MOL1            1 RESIDUE      1      MOL     
@<SCITEGIC>MOL_PROPERTY
VM2 Rank
SciTegic.value.IntegerValue
111

@<SCITEGIC>MOL_PROPERTY
Conf_Id
SciTegic.value.IntegerValue
148

@<SCITEGIC>MOL_PROPERTY
Probability
SciTegic.value.DoubleValue
0.01

@<SCITEGIC>MOL_PROPERTY
Sum Probability
SciTegic.value.DoubleValue
99.87

@<SCITEGIC>MOL_PROPERTY
Delta G
SciTegic.value.DoubleValue
4.780

@<SCITEGIC>MOL_PROPERTY
G
SciTegic.value.DoubleValue
-3.182

@<SCITEGIC>MOL_PROPERTY
E
SciTegic.value.DoubleValue
-28.064

@<SCITEGIC>MOL_PROPERTY
-TS
SciTegic.value.DoubleValue
24.882

@<SCITEGIC>MOL_PROPERTY
U+W
SciTegic.value.DoubleValue
-48.631

@<SCITEGIC>MOL_PROPERTY
U
SciTegic.value.DoubleValue
10.553

@<SCITEGIC>MOL_PROPERTY
W
SciTegic.value.DoubleValue
-59.185

@<SCITEGIC>MOL_PROPERTY
W(PB)
SciTegic.value.DoubleValue
-61.627

@<SCITEGIC>MOL_PROPERTY
W(SA)
SciTegic.value.DoubleValue
2.443

@<SCITEGIC>MOL_PROPERTY
Valence
SciTegic.value.DoubleValue
11.068

@<SCITEGIC>MOL_PROPERTY
Coulomb
SciTegic.value.DoubleValue
-1.642

@<SCITEGIC>MOL_PROPERTY
VdW
SciTegic.value.DoubleValue
1.127

@<SCITEGIC>MOL_PROPERTY
VdW6
SciTegic.value.DoubleValue
-9.885

@<SCITEGIC>MOL_PROPERTY
VdW12
SciTegic.value.DoubleValue
11.012

@<SCITEGIC>MOL_PROPERTY
Bond
SciTegic.value.DoubleValue
0.238

@<SCITEGIC>MOL_PROPERTY
Angle
SciTegic.value.DoubleValue
3.177

@<SCITEGIC>MOL_PROPERTY
Pdih
SciTegic.value.DoubleValue
7.653

@<SCITEGIC>MOL_PROPERTY
Idih
SciTegic.value.DoubleValue
0.001

@<SCITEGIC>MOL_PROPERTY
Tether
SciTegic.value.DoubleValue
0.000

@<TRIPOS>MOLECULE
guest-8_vm2.mol2 : vm2 ligand conformer 112
          25          24           1
SMALL
USER_CHARGES
 
@<TRIPOS>ATOM
       1    C1      20.212718   19.262329   27.470087 C.2        1 MOL1         0.6168
       2    O1      21.276184   19.231969   28.057359 O.co2      1 MOL1        -0.6703
       3    O2      19.179791   19.663850   27.968669 O.co2      1 MOL1        -0.6703
       4    C2      20.177341   18.791865   26.020400 C.3        1 MOL1        -0.1963
       5    H1      19.195740   18.339290   25.842047 H          1 MOL1         0.0750
       6    H2      20.927286   18.000777   25.901614 H          1 MOL1         0.0750
       7    C3      20.445478   19.939140   25.011596 C.3        1 MOL1        -0.1860
       8    H3      19.661563   20.703282   25.105656 H          1 MOL1         0.0752
       9    H4      21.390401   20.429980   25.282970 H          1 MOL1         0.0752
      10    C4      20.540930   19.464519   23.541712 C.3        1 MOL1        -0.1858
      11    H5      21.307782   18.682894   23.454648 H          1 MOL1         0.0752
      12    H6      20.883641   20.312804   22.935950 H          1 MOL1         0.0752
      13    C5      19.197901   18.948989   22.971656 C.3        1 MOL1        -0.1858
      14    H7      18.812780   18.144243   23.610047 H          1 MOL1         0.0752
      15    H8      18.453015   19.755456   23.008406 H          1 MOL1         0.0752
      16    C6      19.290876   18.400380   21.525332 C.3        1 MOL1        -0.1858
      17    H9      18.297785   18.017456   21.253281 H          1 MOL1         0.0752
      18    H10     19.963186   17.532054   21.495064 H          1 MOL1         0.0752
      19    C7      19.712986   19.443415   20.460387 C.3        1 MOL1        -0.1834
      20    H11     19.148128   19.252153   19.537535 H          1 MOL1         0.0752
      21    H12     19.432905   20.455006   20.785157 H          1 MOL1         0.0752
      22    C8      21.218795   19.387542   20.118803 C.3        1 MOL1        -0.2849
      23    H13     21.491475   18.402394   19.718538 H          1 MOL1         0.0764
      24    H14     21.468421   20.139229   19.358894 H          1 MOL1         0.0764
      25    H15     21.844242   19.579392   20.998081 H          1 MOL1         0.0764
@<TRIPOS>BOND
    1     1     2    1
    2     1     3    2
    3     1     4    1
    4     4     5    1
    5     4     6    1
    6     4     7    1
    7     7     8    1
    8     7     9    1
    9     7    10    1
   10    10    11    1
   11    10    12    1
   12    10    13    1
   13    13    14    1
   14    13    15    1
   15    13    16    1
   16    16    17    1
   17    16    18    1
   18    16    19    1
   19    19    20    1
   20    19    21    1
   21    19    22    1
   22    22    23    1
   23    22    24    1
   24    22    25    1
@<TRIPOS>SUBSTRUCTURE
       1 MOL1            1 RESIDUE      1      MOL     
@<SCITEGIC>MOL_PROPERTY
VM2 Rank
SciTegic.value.IntegerValue
112

@<SCITEGIC>MOL_PROPERTY
Conf_Id
SciTegic.value.IntegerValue
157

@<SCITEGIC>MOL_PROPERTY
Probability
SciTegic.value.DoubleValue
0.01

@<SCITEGIC>MOL_PROPERTY
Sum Probability
SciTegic.value.DoubleValue
99.88

@<SCITEGIC>MOL_PROPERTY
Delta G
SciTegic.value.DoubleValue
4.856

@<SCITEGIC>MOL_PROPERTY
G
SciTegic.value.DoubleValue
-3.107

@<SCITEGIC>MOL_PROPERTY
E
SciTegic.value.DoubleValue
-27.897

@<SCITEGIC>MOL_PROPERTY
-TS
SciTegic.value.DoubleValue
24.790

@<SCITEGIC>MOL_PROPERTY
U+W
SciTegic.value.DoubleValue
-48.464

@<SCITEGIC>MOL_PROPERTY
U
SciTegic.value.DoubleValue
10.617

@<SCITEGIC>MOL_PROPERTY
W
SciTegic.value.DoubleValue
-59.082

@<SCITEGIC>MOL_PROPERTY
W(PB)
SciTegic.value.DoubleValue
-61.516

@<SCITEGIC>MOL_PROPERTY
W(SA)
SciTegic.value.DoubleValue
2.434

@<SCITEGIC>MOL_PROPERTY
Valence
SciTegic.value.DoubleValue
11.188

@<SCITEGIC>MOL_PROPERTY
Coulomb
SciTegic.value.DoubleValue
-1.778

@<SCITEGIC>MOL_PROPERTY
VdW
SciTegic.value.DoubleValue
1.208

@<SCITEGIC>MOL_PROPERTY
VdW6
SciTegic.value.DoubleValue
-9.786

@<SCITEGIC>MOL_PROPERTY
VdW12
SciTegic.value.DoubleValue
10.993

@<SCITEGIC>MOL_PROPERTY
Bond
SciTegic.value.DoubleValue
0.241

@<SCITEGIC>MOL_PROPERTY
Angle
SciTegic.value.DoubleValue
3.293

@<SCITEGIC>MOL_PROPERTY
Pdih
SciTegic.value.DoubleValue
7.653

@<SCITEGIC>MOL_PROPERTY
Idih
SciTegic.value.DoubleValue
0.001

@<SCITEGIC>MOL_PROPERTY
Tether
SciTegic.value.DoubleValue
0.000

@<TRIPOS>MOLECULE
guest-8_vm2.mol2 : vm2 ligand conformer 113
          25          24           1
SMALL
USER_CHARGES
 
@<TRIPOS>ATOM
       1    C1      20.247221   19.377768   27.466522 C.2        1 MOL1         0.6168
       2    O1      21.163098   18.853458   28.069048 O.co2      1 MOL1        -0.6703
       3    O2      19.171782   19.637035   27.969467 O.co2      1 MOL1        -0.6703
       4    C2      20.450804   19.707173   25.991995 C.3        1 MOL1        -0.1963
       5    H1      21.509510   19.949502   25.841110 H          1 MOL1         0.0750
       6    H2      19.874973   20.612695   25.771495 H          1 MOL1         0.0750
       7    C3      20.029017   18.545392   25.054874 C.3        1 MOL1        -0.1860
       8    H3      20.554751   17.633325   25.369809 H          1 MOL1         0.0752
       9    H4      18.956242   18.342798   25.178937 H          1 MOL1         0.0752
      10    C4      20.343987   18.805407   23.562183 C.3        1 MOL1        -0.1858
      11    H5      20.155293   17.875210   23.011621 H          1 MOL1         0.0752
      12    H6      21.412196   19.032345   23.443811 H          1 MOL1         0.0752
      13    C5      19.493800   19.939291   22.940932 C.3        1 MOL1        -0.1858
      14    H7      18.429489   19.676708   23.010835 H          1 MOL1         0.0752
      15    H8      19.623700   20.858251   23.525839 H          1 MOL1         0.0752
      16    C6      19.847680   20.263794   21.467524 C.3        1 MOL1        -0.1858
      17    H9      20.885327   20.618116   21.399328 H          1 MOL1         0.0752
      18    H10     19.222521   21.112197   21.157264 H          1 MOL1         0.0752
      19    C7      19.610807   19.101444   20.471013 C.3        1 MOL1        -0.1834
      20    H11     18.827641   18.429332   20.848039 H          1 MOL1         0.0752
      21    H12     19.227586   19.518131   19.529305 H          1 MOL1         0.0752
      22    C8      20.894803   18.303238   20.152443 C.3        1 MOL1        -0.2849
      23    H13     21.327666   17.850431   21.051730 H          1 MOL1         0.0764
      24    H14     20.678569   17.495864   19.440967 H          1 MOL1         0.0764
      25    H15     21.655971   18.953033   19.701366 H          1 MOL1         0.0764
@<TRIPOS>BOND
    1     1     2    1
    2     1     3    2
    3     1     4    1
    4     4     5    1
    5     4     6    1
    6     4     7    1
    7     7     8    1
    8     7     9    1
    9     7    10    1
   10    10    11    1
   11    10    12    1
   12    10    13    1
   13    13    14    1
   14    13    15    1
   15    13    16    1
   16    16    17    1
   17    16    18    1
   18    16    19    1
   19    19    20    1
   20    19    21    1
   21    19    22    1
   22    22    23    1
   23    22    24    1
   24    22    25    1
@<TRIPOS>SUBSTRUCTURE
       1 MOL1            1 RESIDUE      1      MOL     
@<SCITEGIC>MOL_PROPERTY
VM2 Rank
SciTegic.value.IntegerValue
113

@<SCITEGIC>MOL_PROPERTY
Conf_Id
SciTegic.value.IntegerValue
216

@<SCITEGIC>MOL_PROPERTY
Probability
SciTegic.value.DoubleValue
0.01

@<SCITEGIC>MOL_PROPERTY
Sum Probability
SciTegic.value.DoubleValue
99.89

@<SCITEGIC>MOL_PROPERTY
Delta G
SciTegic.value.DoubleValue
4.876

@<SCITEGIC>MOL_PROPERTY
G
SciTegic.value.DoubleValue
-3.087

@<SCITEGIC>MOL_PROPERTY
E
SciTegic.value.DoubleValue
-27.877

@<SCITEGIC>MOL_PROPERTY
-TS
SciTegic.value.DoubleValue
24.790

@<SCITEGIC>MOL_PROPERTY
U+W
SciTegic.value.DoubleValue
-48.444

@<SCITEGIC>MOL_PROPERTY
U
SciTegic.value.DoubleValue
10.617

@<SCITEGIC>MOL_PROPERTY
W
SciTegic.value.DoubleValue
-59.062

@<SCITEGIC>MOL_PROPERTY
W(PB)
SciTegic.value.DoubleValue
-61.493

@<SCITEGIC>MOL_PROPERTY
W(SA)
SciTegic.value.DoubleValue
2.432

@<SCITEGIC>MOL_PROPERTY
Valence
SciTegic.value.DoubleValue
11.188

@<SCITEGIC>MOL_PROPERTY
Coulomb
SciTegic.value.DoubleValue
-1.778

@<SCITEGIC>MOL_PROPERTY
VdW
SciTegic.value.DoubleValue
1.208

@<SCITEGIC>MOL_PROPERTY
VdW6
SciTegic.value.DoubleValue
-9.786

@<SCITEGIC>MOL_PROPERTY
VdW12
SciTegic.value.DoubleValue
10.993

@<SCITEGIC>MOL_PROPERTY
Bond
SciTegic.value.DoubleValue
0.241

@<SCITEGIC>MOL_PROPERTY
Angle
SciTegic.value.DoubleValue
3.293

@<SCITEGIC>MOL_PROPERTY
Pdih
SciTegic.value.DoubleValue
7.653

@<SCITEGIC>MOL_PROPERTY
Idih
SciTegic.value.DoubleValue
0.001

@<SCITEGIC>MOL_PROPERTY
Tether
SciTegic.value.DoubleValue
0.000

@<TRIPOS>MOLECULE
guest-8_vm2.mol2 : vm2 ligand conformer 114
          25          24           1
SMALL
USER_CHARGES
 
@<TRIPOS>ATOM
       1    C1      19.687252   19.260082   27.126549 C.2        1 MOL1         0.6168
       2    O1      20.285696   19.060718   28.165271 O.co2      1 MOL1        -0.6703
       3    O2      18.671970   19.923485   27.051032 O.co2      1 MOL1        -0.6703
       4    C2      20.253491   18.662042   25.843864 C.3        1 MOL1        -0.1963
       5    H1      19.412990   18.426920   25.183338 H          1 MOL1         0.0750
       6    H2      20.734624   17.710148   26.098247 H          1 MOL1         0.0750
       7    C3      21.270836   19.600456   25.142362 C.3        1 MOL1        -0.1860
       8    H3      20.814505   20.582409   24.955486 H          1 MOL1         0.0752
       9    H4      22.102559   19.778221   25.838107 H          1 MOL1         0.0752
      10    C4      21.840323   19.013465   23.825847 C.3        1 MOL1        -0.1858
      11    H5      21.828139   17.915516   23.861532 H          1 MOL1         0.0752
      12    H6      22.899215   19.297383   23.754624 H          1 MOL1         0.0752
      13    C5      21.137358   19.510009   22.537212 C.3        1 MOL1        -0.1858
      14    H7      21.245474   20.600392   22.460282 H          1 MOL1         0.0752
      15    H8      21.672993   19.085975   21.678704 H          1 MOL1         0.0752
      16    C6      19.638312   19.136351   22.446411 C.3        1 MOL1        -0.1858
      17    H9      19.097848   19.623495   23.268021 H          1 MOL1         0.0752
      18    H10     19.514800   18.053472   22.582623 H          1 MOL1         0.0752
      19    C7      18.974266   19.571478   21.118956 C.3        1 MOL1        -0.1834
      20    H11     17.890010   19.413888   21.201289 H          1 MOL1         0.0752
      21    H12     19.119783   20.649847   20.966598 H          1 MOL1         0.0752
      22    C8      19.493497   18.795915   19.888495 C.3        1 MOL1        -0.2849
      23    H13     19.388837   17.712861   20.033865 H          1 MOL1         0.0764
      24    H14     18.923150   19.072777   18.992425 H          1 MOL1         0.0764
      25    H15     20.549449   19.016501   19.689716 H          1 MOL1         0.0764
@<TRIPOS>BOND
    1     1     2    1
    2     1     3    2
    3     1     4    1
    4     4     5    1
    5     4     6    1
    6     4     7    1
    7     7     8    1
    8     7     9    1
    9     7    10    1
   10    10    11    1
   11    10    12    1
   12    10    13    1
   13    13    14    1
   14    13    15    1
   15    13    16    1
   16    16    17    1
   17    16    18    1
   18    16    19    1
   19    19    20    1
   20    19    21    1
   21    19    22    1
   22    22    23    1
   23    22    24    1
   24    22    25    1
@<TRIPOS>SUBSTRUCTURE
       1 MOL1            1 RESIDUE      1      MOL     
@<SCITEGIC>MOL_PROPERTY
VM2 Rank
SciTegic.value.IntegerValue
114

@<SCITEGIC>MOL_PROPERTY
Conf_Id
SciTegic.value.IntegerValue
1038

@<SCITEGIC>MOL_PROPERTY
Probability
SciTegic.value.DoubleValue
0.01

@<SCITEGIC>MOL_PROPERTY
Sum Probability
SciTegic.value.DoubleValue
99.89

@<SCITEGIC>MOL_PROPERTY
Delta G
SciTegic.value.DoubleValue
4.887

@<SCITEGIC>MOL_PROPERTY
G
SciTegic.value.DoubleValue
-3.075

@<SCITEGIC>MOL_PROPERTY
E
SciTegic.value.DoubleValue
-27.928

@<SCITEGIC>MOL_PROPERTY
-TS
SciTegic.value.DoubleValue
24.853

@<SCITEGIC>MOL_PROPERTY
U+W
SciTegic.value.DoubleValue
-48.496

@<SCITEGIC>MOL_PROPERTY
U
SciTegic.value.DoubleValue
10.982

@<SCITEGIC>MOL_PROPERTY
W
SciTegic.value.DoubleValue
-59.478

@<SCITEGIC>MOL_PROPERTY
W(PB)
SciTegic.value.DoubleValue
-61.937

@<SCITEGIC>MOL_PROPERTY
W(SA)
SciTegic.value.DoubleValue
2.459

@<SCITEGIC>MOL_PROPERTY
Valence
SciTegic.value.DoubleValue
11.160

@<SCITEGIC>MOL_PROPERTY
Coulomb
SciTegic.value.DoubleValue
-1.272

@<SCITEGIC>MOL_PROPERTY
VdW
SciTegic.value.DoubleValue
1.094

@<SCITEGIC>MOL_PROPERTY
VdW6
SciTegic.value.DoubleValue
-9.961

@<SCITEGIC>MOL_PROPERTY
VdW12
SciTegic.value.DoubleValue
11.055

@<SCITEGIC>MOL_PROPERTY
Bond
SciTegic.value.DoubleValue
0.244

@<SCITEGIC>MOL_PROPERTY
Angle
SciTegic.value.DoubleValue
3.277

@<SCITEGIC>MOL_PROPERTY
Pdih
SciTegic.value.DoubleValue
7.638

@<SCITEGIC>MOL_PROPERTY
Idih
SciTegic.value.DoubleValue
0.001

@<SCITEGIC>MOL_PROPERTY
Tether
SciTegic.value.DoubleValue
0.000

@<TRIPOS>MOLECULE
guest-8_vm2.mol2 : vm2 ligand conformer 115
          25          24           1
SMALL
USER_CHARGES
 
@<TRIPOS>ATOM
       1    C1      20.122052   19.790728   27.137599 C.2        1 MOL1         0.6168
       2    O1      21.170458   20.347610   27.397214 O.co2      1 MOL1        -0.6703
       3    O2      19.038149   20.182166   27.523117 O.co2      1 MOL1        -0.6703
       4    C2      20.167399   18.541708   26.264614 C.3        1 MOL1        -0.1963
       5    H1      19.351017   17.879032   26.575880 H          1 MOL1         0.0750
       6    H2      21.108018   18.016566   26.469587 H          1 MOL1         0.0750
       7    C3      20.051959   18.860552   24.753651 C.3        1 MOL1        -0.1860
       8    H3      19.109048   19.392201   24.565176 H          1 MOL1         0.0752
       9    H4      20.868614   19.538388   24.472627 H          1 MOL1         0.0752
      10    C4      20.111929   17.580813   23.889991 C.3        1 MOL1        -0.1858
      11    H5      19.365377   16.864989   24.260299 H          1 MOL1         0.0752
      12    H6      21.090907   17.098923   24.017560 H          1 MOL1         0.0752
      13    C5      19.848311   17.821184   22.382321 C.3        1 MOL1        -0.1858
      14    H7      19.858809   16.841820   21.884983 H          1 MOL1         0.0752
      15    H8      18.833793   18.214042   22.241363 H          1 MOL1         0.0752
      16    C6      20.895050   18.727653   21.681183 C.3        1 MOL1        -0.1858
      17    H9      21.077025   18.342604   20.668557 H          1 MOL1         0.0752
      18    H10     21.857094   18.647231   22.205264 H          1 MOL1         0.0752
      19    C7      20.490757   20.218866   21.568341 C.3        1 MOL1        -0.1834
      20    H11     20.194263   20.614575   22.547358 H          1 MOL1         0.0752
      21    H12     21.370863   20.797575   21.256119 H          1 MOL1         0.0752
      22    C8      19.356937   20.462721   20.547969 C.3        1 MOL1        -0.2849
      23    H13     19.633729   20.084195   19.555433 H          1 MOL1         0.0764
      24    H14     18.425278   19.971600   20.854121 H          1 MOL1         0.0764
      25    H15     19.151060   21.536731   20.453230 H          1 MOL1         0.0764
@<TRIPOS>BOND
    1     1     2    1
    2     1     3    2
    3     1     4    1
    4     4     5    1
    5     4     6    1
    6     4     7    1
    7     7     8    1
    8     7     9    1
    9     7    10    1
   10    10    11    1
   11    10    12    1
   12    10    13    1
   13    13    14    1
   14    13    15    1
   15    13    16    1
   16    16    17    1
   17    16    18    1
   18    16    19    1
   19    19    20    1
   20    19    21    1
   21    19    22    1
   22    22    23    1
   23    22    24    1
   24    22    25    1
@<TRIPOS>SUBSTRUCTURE
       1 MOL1            1 RESIDUE      1      MOL     
@<SCITEGIC>MOL_PROPERTY
VM2 Rank
SciTegic.value.IntegerValue
115

@<SCITEGIC>MOL_PROPERTY
Conf_Id
SciTegic.value.IntegerValue
246

@<SCITEGIC>MOL_PROPERTY
Probability
SciTegic.value.DoubleValue
0.01

@<SCITEGIC>MOL_PROPERTY
Sum Probability
SciTegic.value.DoubleValue
99.90

@<SCITEGIC>MOL_PROPERTY
Delta G
SciTegic.value.DoubleValue
4.899

@<SCITEGIC>MOL_PROPERTY
G
SciTegic.value.DoubleValue
-3.063

@<SCITEGIC>MOL_PROPERTY
E
SciTegic.value.DoubleValue
-27.916

@<SCITEGIC>MOL_PROPERTY
-TS
SciTegic.value.DoubleValue
24.852

@<SCITEGIC>MOL_PROPERTY
U+W
SciTegic.value.DoubleValue
-48.483

@<SCITEGIC>MOL_PROPERTY
U
SciTegic.value.DoubleValue
11.373

@<SCITEGIC>MOL_PROPERTY
W
SciTegic.value.DoubleValue
-59.857

@<SCITEGIC>MOL_PROPERTY
W(PB)
SciTegic.value.DoubleValue
-62.293

@<SCITEGIC>MOL_PROPERTY
W(SA)
SciTegic.value.DoubleValue
2.436

@<SCITEGIC>MOL_PROPERTY
Valence
SciTegic.value.DoubleValue
11.258

@<SCITEGIC>MOL_PROPERTY
Coulomb
SciTegic.value.DoubleValue
-0.951

@<SCITEGIC>MOL_PROPERTY
VdW
SciTegic.value.DoubleValue
1.066

@<SCITEGIC>MOL_PROPERTY
VdW6
SciTegic.value.DoubleValue
-9.862

@<SCITEGIC>MOL_PROPERTY
VdW12
SciTegic.value.DoubleValue
10.928

@<SCITEGIC>MOL_PROPERTY
Bond
SciTegic.value.DoubleValue
0.236

@<SCITEGIC>MOL_PROPERTY
Angle
SciTegic.value.DoubleValue
3.228

@<SCITEGIC>MOL_PROPERTY
Pdih
SciTegic.value.DoubleValue
7.794

@<SCITEGIC>MOL_PROPERTY
Idih
SciTegic.value.DoubleValue
0.001

@<SCITEGIC>MOL_PROPERTY
Tether
SciTegic.value.DoubleValue
0.000

@<TRIPOS>MOLECULE
guest-8_vm2.mol2 : vm2 ligand conformer 116
          25          24           1
SMALL
USER_CHARGES
 
@<TRIPOS>ATOM
       1    C1      19.771642   18.768750   26.779102 C.2        1 MOL1         0.6168
       2    O1      20.472271   18.529679   27.742871 O.co2      1 MOL1        -0.6703
       3    O2      18.572773   18.954840   26.848137 O.co2      1 MOL1        -0.6703
       4    C2      20.437571   18.861744   25.411091 C.3        1 MOL1        -0.1963
       5    H1      19.722104   18.496628   24.668528 H          1 MOL1         0.0750
       6    H2      21.289482   18.171607   25.401996 H          1 MOL1         0.0750
       7    C3      20.912734   20.299440   25.072337 C.3        1 MOL1        -0.1860
       8    H3      20.063594   20.995783   25.107190 H          1 MOL1         0.0752
       9    H4      21.602733   20.620320   25.865042 H          1 MOL1         0.0752
      10    C4      21.644055   20.411527   23.709872 C.3        1 MOL1        -0.1858
      11    H5      22.177346   19.479643   23.481181 H          1 MOL1         0.0752
      12    H6      22.425968   21.176449   23.811475 H          1 MOL1         0.0752
      13    C5      20.742520   20.835834   22.520334 C.3        1 MOL1        -0.1858
      14    H7      20.296196   21.813443   22.747723 H          1 MOL1         0.0752
      15    H8      21.378710   20.995451   21.639163 H          1 MOL1         0.0752
      16    C6      19.609830   19.852319   22.138851 C.3        1 MOL1        -0.1858
      17    H9      19.023514   20.301265   21.325658 H          1 MOL1         0.0752
      18    H10     18.914798   19.737006   22.979858 H          1 MOL1         0.0752
      19    C7      20.125027   18.471397   21.673228 C.3        1 MOL1        -0.1834
      20    H11     20.815791   18.600878   20.828800 H          1 MOL1         0.0752
      21    H12     20.693262   17.986068   22.476941 H          1 MOL1         0.0752
      22    C8      18.964577   17.548470   21.250177 C.3        1 MOL1        -0.2849
      23    H13     18.396054   17.987017   20.419694 H          1 MOL1         0.0764
      24    H14     19.346097   16.572909   20.922046 H          1 MOL1         0.0764
      25    H15     18.274185   17.378668   22.086788 H          1 MOL1         0.0764
@<TRIPOS>BOND
    1     1     2    1
    2     1     3    2
    3     1     4    1
    4     4     5    1
    5     4     6    1
    6     4     7    1
    7     7     8    1
    8     7     9    1
    9     7    10    1
   10    10    11    1
   11    10    12    1
   12    10    13    1
   13    13    14    1
   14    13    15    1
   15    13    16    1
   16    16    17    1
   17    16    18    1
   18    16    19    1
   19    19    20    1
   20    19    21    1
   21    19    22    1
   22    22    23    1
   23    22    24    1
   24    22    25    1
@<TRIPOS>SUBSTRUCTURE
       1 MOL1            1 RESIDUE      1      MOL     
@<SCITEGIC>MOL_PROPERTY
VM2 Rank
SciTegic.value.IntegerValue
116

@<SCITEGIC>MOL_PROPERTY
Conf_Id
SciTegic.value.IntegerValue
168

@<SCITEGIC>MOL_PROPERTY
Probability
SciTegic.value.DoubleValue
0.01

@<SCITEGIC>MOL_PROPERTY
Sum Probability
SciTegic.value.DoubleValue
99.91

@<SCITEGIC>MOL_PROPERTY
Delta G
SciTegic.value.DoubleValue
4.942

@<SCITEGIC>MOL_PROPERTY
G
SciTegic.value.DoubleValue
-3.020

@<SCITEGIC>MOL_PROPERTY
E
SciTegic.value.DoubleValue
-28.283

@<SCITEGIC>MOL_PROPERTY
-TS
SciTegic.value.DoubleValue
25.264

@<SCITEGIC>MOL_PROPERTY
U+W
SciTegic.value.DoubleValue
-48.851

@<SCITEGIC>MOL_PROPERTY
U
SciTegic.value.DoubleValue
11.279

@<SCITEGIC>MOL_PROPERTY
W
SciTegic.value.DoubleValue
-60.130

@<SCITEGIC>MOL_PROPERTY
W(PB)
SciTegic.value.DoubleValue
-62.517

@<SCITEGIC>MOL_PROPERTY
W(SA)
SciTegic.value.DoubleValue
2.387

@<SCITEGIC>MOL_PROPERTY
Valence
SciTegic.value.DoubleValue
11.119

@<SCITEGIC>MOL_PROPERTY
Coulomb
SciTegic.value.DoubleValue
-0.438

@<SCITEGIC>MOL_PROPERTY
VdW
SciTegic.value.DoubleValue
0.597

@<SCITEGIC>MOL_PROPERTY
VdW6
SciTegic.value.DoubleValue
-10.693

@<SCITEGIC>MOL_PROPERTY
VdW12
SciTegic.value.DoubleValue
11.290

@<SCITEGIC>MOL_PROPERTY
Bond
SciTegic.value.DoubleValue
0.252

@<SCITEGIC>MOL_PROPERTY
Angle
SciTegic.value.DoubleValue
3.622

@<SCITEGIC>MOL_PROPERTY
Pdih
SciTegic.value.DoubleValue
7.244

@<SCITEGIC>MOL_PROPERTY
Idih
SciTegic.value.DoubleValue
0.001

@<SCITEGIC>MOL_PROPERTY
Tether
SciTegic.value.DoubleValue
0.000

@<TRIPOS>MOLECULE
guest-8_vm2.mol2 : vm2 ligand conformer 117
          25          24           1
SMALL
USER_CHARGES
 
@<TRIPOS>ATOM
       1    C1      19.564087   18.882896   26.425037 C.2        1 MOL1         0.6168
       2    O1      19.221901   17.757205   26.120206 O.co2      1 MOL1        -0.6703
       3    O2      18.781977   19.763457   26.726135 O.co2      1 MOL1        -0.6703
       4    C2      21.059776   19.184314   26.502127 C.3        1 MOL1        -0.1963
       5    H1      21.619985   18.276463   26.247661 H          1 MOL1         0.0750
       6    H2      21.276041   19.401758   27.554453 H          1 MOL1         0.0750
       7    C3      21.542198   20.377365   25.629600 C.3        1 MOL1        -0.1860
       8    H3      20.845044   21.220830   25.730195 H          1 MOL1         0.0752
       9    H4      22.500825   20.728258   26.034956 H          1 MOL1         0.0752
      10    C4      21.757579   20.042475   24.132701 C.3        1 MOL1        -0.1858
      11    H5      22.467543   19.209454   24.038713 H          1 MOL1         0.0752
      12    H6      22.233421   20.909144   23.653811 H          1 MOL1         0.0752
      13    C5      20.456902   19.703624   23.369576 C.3        1 MOL1        -0.1858
      14    H7      20.039166   18.767921   23.759039 H          1 MOL1         0.0752
      15    H8      19.710087   20.489567   23.546472 H          1 MOL1         0.0752
      16    C6      20.707323   19.558583   21.850367 C.3        1 MOL1        -0.1858
      17    H9      21.419780   18.742168   21.669524 H          1 MOL1         0.0752
      18    H10     21.182815   20.475547   21.476423 H          1 MOL1         0.0752
      19    C7      19.416510   19.308810   21.035917 C.3        1 MOL1        -0.1834
      20    H11     18.703127   20.125703   21.212136 H          1 MOL1         0.0752
      21    H12     19.663605   19.337921   19.965745 H          1 MOL1         0.0752
      22    C8      18.744746   17.955270   21.354334 C.3        1 MOL1        -0.2849
      23    H13     19.448473   17.124613   21.213581 H          1 MOL1         0.0764
      24    H14     18.377403   17.923487   22.388009 H          1 MOL1         0.0764
      25    H15     17.886153   17.787210   20.691476 H          1 MOL1         0.0764
@<TRIPOS>BOND
    1     1     2    1
    2     1     3    2
    3     1     4    1
    4     4     5    1
    5     4     6    1
    6     4     7    1
    7     7     8    1
    8     7     9    1
    9     7    10    1
   10    10    11    1
   11    10    12    1
   12    10    13    1
   13    13    14    1
   14    13    15    1
   15    13    16    1
   16    16    17    1
   17    16    18    1
   18    16    19    1
   19    19    20    1
   20    19    21    1
   21    19    22    1
   22    22    23    1
   23    22    24    1
   24    22    25    1
@<TRIPOS>SUBSTRUCTURE
       1 MOL1            1 RESIDUE      1      MOL     
@<SCITEGIC>MOL_PROPERTY
VM2 Rank
SciTegic.value.IntegerValue
117

@<SCITEGIC>MOL_PROPERTY
Conf_Id
SciTegic.value.IntegerValue
527

@<SCITEGIC>MOL_PROPERTY
Probability
SciTegic.value.DoubleValue
0.01

@<SCITEGIC>MOL_PROPERTY
Sum Probability
SciTegic.value.DoubleValue
99.91

@<SCITEGIC>MOL_PROPERTY
Delta G
SciTegic.value.DoubleValue
4.989

@<SCITEGIC>MOL_PROPERTY
G
SciTegic.value.DoubleValue
-2.973

@<SCITEGIC>MOL_PROPERTY
E
SciTegic.value.DoubleValue
-28.131

@<SCITEGIC>MOL_PROPERTY
-TS
SciTegic.value.DoubleValue
25.158

@<SCITEGIC>MOL_PROPERTY
U+W
SciTegic.value.DoubleValue
-48.698

@<SCITEGIC>MOL_PROPERTY
U
SciTegic.value.DoubleValue
12.472

@<SCITEGIC>MOL_PROPERTY
W
SciTegic.value.DoubleValue
-61.170

@<SCITEGIC>MOL_PROPERTY
W(PB)
SciTegic.value.DoubleValue
-63.568

@<SCITEGIC>MOL_PROPERTY
W(SA)
SciTegic.value.DoubleValue
2.398

@<SCITEGIC>MOL_PROPERTY
Valence
SciTegic.value.DoubleValue
9.941

@<SCITEGIC>MOL_PROPERTY
Coulomb
SciTegic.value.DoubleValue
1.807

@<SCITEGIC>MOL_PROPERTY
VdW
SciTegic.value.DoubleValue
0.724

@<SCITEGIC>MOL_PROPERTY
VdW6
SciTegic.value.DoubleValue
-10.776

@<SCITEGIC>MOL_PROPERTY
VdW12
SciTegic.value.DoubleValue
11.499

@<SCITEGIC>MOL_PROPERTY
Bond
SciTegic.value.DoubleValue
0.236

@<SCITEGIC>MOL_PROPERTY
Angle
SciTegic.value.DoubleValue
3.415

@<SCITEGIC>MOL_PROPERTY
Pdih
SciTegic.value.DoubleValue
6.282

@<SCITEGIC>MOL_PROPERTY
Idih
SciTegic.value.DoubleValue
0.007

@<SCITEGIC>MOL_PROPERTY
Tether
SciTegic.value.DoubleValue
0.000

@<TRIPOS>MOLECULE
guest-8_vm2.mol2 : vm2 ligand conformer 118
          25          24           1
SMALL
USER_CHARGES
 
@<TRIPOS>ATOM
       1    C1      20.486449   19.309997   27.336303 C.2        1 MOL1         0.6168
       2    O1      21.605191   19.766286   27.466242 O.co2      1 MOL1        -0.6703
       3    O2      19.590726   19.484501   28.138763 O.co2      1 MOL1        -0.6703
       4    C2      20.184214   18.489297   26.087579 C.3        1 MOL1        -0.1963
       5    H1      19.443348   17.725659   26.353069 H          1 MOL1         0.0750
       6    H2      21.101268   17.963910   25.795041 H          1 MOL1         0.0750
       7    C3      19.665322   19.352650   24.911289 C.3        1 MOL1        -0.1860
       8    H3      18.753723   19.879984   25.224520 H          1 MOL1         0.0752
       9    H4      20.412834   20.121748   24.678029 H          1 MOL1         0.0752
      10    C4      19.366974   18.494749   23.659097 C.3        1 MOL1        -0.1858
      11    H5      18.642631   17.715167   23.931549 H          1 MOL1         0.0752
      12    H6      20.278399   17.972386   23.344474 H          1 MOL1         0.0752
      13    C5      18.781841   19.315643   22.482144 C.3        1 MOL1        -0.1858
      14    H7      18.342957   18.632355   21.742497 H          1 MOL1         0.0752
      15    H8      17.944683   19.916618   22.862599 H          1 MOL1         0.0752
      16    C6      19.795579   20.255194   21.775807 C.3        1 MOL1        -0.1858
      17    H9      20.573514   20.588578   22.473638 H          1 MOL1         0.0752
      18    H10     19.260605   21.164867   21.470940 H          1 MOL1         0.0752
      19    C7      20.452784   19.654872   20.508413 C.3        1 MOL1        -0.1834
      20    H11     19.675596   19.403056   19.773722 H          1 MOL1         0.0752
      21    H12     21.078708   20.427377   20.040862 H          1 MOL1         0.0752
      22    C8      21.323920   18.410810   20.780362 C.3        1 MOL1        -0.2849
      23    H13     20.709945   17.560777   21.102853 H          1 MOL1         0.0764
      24    H14     21.856067   18.107909   19.869428 H          1 MOL1         0.0764
      25    H15     22.071527   18.615979   21.557573 H          1 MOL1         0.0764
@<TRIPOS>BOND
    1     1     2    1
    2     1     3    2
    3     1     4    1
    4     4     5    1
    5     4     6    1
    6     4     7    1
    7     7     8    1
    8     7     9    1
    9     7    10    1
   10    10    11    1
   11    10    12    1
   12    10    13    1
   13    13    14    1
   14    13    15    1
   15    13    16    1
   16    16    17    1
   17    16    18    1
   18    16    19    1
   19    19    20    1
   20    19    21    1
   21    19    22    1
   22    22    23    1
   23    22    24    1
   24    22    25    1
@<TRIPOS>SUBSTRUCTURE
       1 MOL1            1 RESIDUE      1      MOL     
@<SCITEGIC>MOL_PROPERTY
VM2 Rank
SciTegic.value.IntegerValue
118

@<SCITEGIC>MOL_PROPERTY
Conf_Id
SciTegic.value.IntegerValue
92

@<SCITEGIC>MOL_PROPERTY
Probability
SciTegic.value.DoubleValue
0.01

@<SCITEGIC>MOL_PROPERTY
Sum Probability
SciTegic.value.DoubleValue
99.92

@<SCITEGIC>MOL_PROPERTY
Delta G
SciTegic.value.DoubleValue
5.019

@<SCITEGIC>MOL_PROPERTY
G
SciTegic.value.DoubleValue
-2.944

@<SCITEGIC>MOL_PROPERTY
E
SciTegic.value.DoubleValue
-27.761

@<SCITEGIC>MOL_PROPERTY
-TS
SciTegic.value.DoubleValue
24.817

@<SCITEGIC>MOL_PROPERTY
U+W
SciTegic.value.DoubleValue
-48.329

@<SCITEGIC>MOL_PROPERTY
U
SciTegic.value.DoubleValue
11.068

@<SCITEGIC>MOL_PROPERTY
W
SciTegic.value.DoubleValue
-59.397

@<SCITEGIC>MOL_PROPERTY
W(PB)
SciTegic.value.DoubleValue
-61.844

@<SCITEGIC>MOL_PROPERTY
W(SA)
SciTegic.value.DoubleValue
2.447

@<SCITEGIC>MOL_PROPERTY
Valence
SciTegic.value.DoubleValue
11.256

@<SCITEGIC>MOL_PROPERTY
Coulomb
SciTegic.value.DoubleValue
-1.286

@<SCITEGIC>MOL_PROPERTY
VdW
SciTegic.value.DoubleValue
1.098

@<SCITEGIC>MOL_PROPERTY
VdW6
SciTegic.value.DoubleValue
-9.790

@<SCITEGIC>MOL_PROPERTY
VdW12
SciTegic.value.DoubleValue
10.888

@<SCITEGIC>MOL_PROPERTY
Bond
SciTegic.value.DoubleValue
0.240

@<SCITEGIC>MOL_PROPERTY
Angle
SciTegic.value.DoubleValue
3.222

@<SCITEGIC>MOL_PROPERTY
Pdih
SciTegic.value.DoubleValue
7.793

@<SCITEGIC>MOL_PROPERTY
Idih
SciTegic.value.DoubleValue
0.001

@<SCITEGIC>MOL_PROPERTY
Tether
SciTegic.value.DoubleValue
0.000

@<TRIPOS>MOLECULE
guest-8_vm2.mol2 : vm2 ligand conformer 119
          25          24           1
SMALL
USER_CHARGES
 
@<TRIPOS>ATOM
       1    C1      20.707049   19.067736   26.478024 C.2        1 MOL1         0.6168
       2    O1      21.799300   19.132564   25.949281 O.co2      1 MOL1        -0.6703
       3    O2      20.378082   18.175884   27.235796 O.co2      1 MOL1        -0.6703
       4    C2      19.704769   20.186642   26.206995 C.3        1 MOL1        -0.1963
       5    H1      20.225801   21.010537   25.706182 H          1 MOL1         0.0750
       6    H2      19.377065   20.572176   27.179345 H          1 MOL1         0.0750
       7    C3      18.463372   19.743903   25.384821 C.3        1 MOL1        -0.1860
       8    H3      17.923078   18.971587   25.949524 H          1 MOL1         0.0752
       9    H4      17.773743   20.593199   25.288037 H          1 MOL1         0.0752
      10    C4      18.794144   19.191775   23.976615 C.3        1 MOL1        -0.1858
      11    H5      17.862256   18.848658   23.507318 H          1 MOL1         0.0752
      12    H6      19.436923   18.306971   24.075786 H          1 MOL1         0.0752
      13    C5      19.472109   20.232751   23.053194 C.3        1 MOL1        -0.1858
      14    H7      18.883172   21.159708   23.064496 H          1 MOL1         0.0752
      15    H8      20.463135   20.493395   23.446107 H          1 MOL1         0.0752
      16    C6      19.607562   19.756163   21.584986 C.3        1 MOL1        -0.1858
      17    H9      20.060815   20.563065   20.993350 H          1 MOL1         0.0752
      18    H10     18.603717   19.600837   21.166943 H          1 MOL1         0.0752
      19    C7      20.436349   18.462980   21.385186 C.3        1 MOL1        -0.1834
      20    H11     19.942158   17.616895   21.880804 H          1 MOL1         0.0752
      21    H12     20.453267   18.219947   20.313935 H          1 MOL1         0.0752
      22    C8      21.890263   18.583601   21.891101 C.3        1 MOL1        -0.2849
      23    H13     22.459928   17.678650   21.643933 H          1 MOL1         0.0764
      24    H14     22.397589   19.440622   21.429712 H          1 MOL1         0.0764
      25    H15     21.923666   18.709294   22.981544 H          1 MOL1         0.0764
@<TRIPOS>BOND
    1     1     2    1
    2     1     3    2
    3     1     4    1
    4     4     5    1
    5     4     6    1
    6     4     7    1
    7     7     8    1
    8     7     9    1
    9     7    10    1
   10    10    11    1
   11    10    12    1
   12    10    13    1
   13    13    14    1
   14    13    15    1
   15    13    16    1
   16    16    17    1
   17    16    18    1
   18    16    19    1
   19    19    20    1
   20    19    21    1
   21    19    22    1
   22    22    23    1
   23    22    24    1
   24    22    25    1
@<TRIPOS>SUBSTRUCTURE
       1 MOL1            1 RESIDUE      1      MOL     
@<SCITEGIC>MOL_PROPERTY
VM2 Rank
SciTegic.value.IntegerValue
119

@<SCITEGIC>MOL_PROPERTY
Conf_Id
SciTegic.value.IntegerValue
169

@<SCITEGIC>MOL_PROPERTY
Probability
SciTegic.value.DoubleValue
0.00

@<SCITEGIC>MOL_PROPERTY
Sum Probability
SciTegic.value.DoubleValue
99.92

@<SCITEGIC>MOL_PROPERTY
Delta G
SciTegic.value.DoubleValue
5.044

@<SCITEGIC>MOL_PROPERTY
G
SciTegic.value.DoubleValue
-2.918

@<SCITEGIC>MOL_PROPERTY
E
SciTegic.value.DoubleValue
-28.422

@<SCITEGIC>MOL_PROPERTY
-TS
SciTegic.value.DoubleValue
25.504

@<SCITEGIC>MOL_PROPERTY
U+W
SciTegic.value.DoubleValue
-48.990

@<SCITEGIC>MOL_PROPERTY
U
SciTegic.value.DoubleValue
12.037

@<SCITEGIC>MOL_PROPERTY
W
SciTegic.value.DoubleValue
-61.027

@<SCITEGIC>MOL_PROPERTY
W(PB)
SciTegic.value.DoubleValue
-63.375

@<SCITEGIC>MOL_PROPERTY
W(SA)
SciTegic.value.DoubleValue
2.347

@<SCITEGIC>MOL_PROPERTY
Valence
SciTegic.value.DoubleValue
9.200

@<SCITEGIC>MOL_PROPERTY
Coulomb
SciTegic.value.DoubleValue
2.438

@<SCITEGIC>MOL_PROPERTY
VdW
SciTegic.value.DoubleValue
0.400

@<SCITEGIC>MOL_PROPERTY
VdW6
SciTegic.value.DoubleValue
-11.698

@<SCITEGIC>MOL_PROPERTY
VdW12
SciTegic.value.DoubleValue
12.097

@<SCITEGIC>MOL_PROPERTY
Bond
SciTegic.value.DoubleValue
0.260

@<SCITEGIC>MOL_PROPERTY
Angle
SciTegic.value.DoubleValue
3.326

@<SCITEGIC>MOL_PROPERTY
Pdih
SciTegic.value.DoubleValue
5.612

@<SCITEGIC>MOL_PROPERTY
Idih
SciTegic.value.DoubleValue
0.002

@<SCITEGIC>MOL_PROPERTY
Tether
SciTegic.value.DoubleValue
0.000

@<TRIPOS>MOLECULE
guest-8_vm2.mol2 : vm2 ligand conformer 120
          25          24           1
SMALL
USER_CHARGES
 
@<TRIPOS>ATOM
       1    C1      19.651352   19.724826   26.715755 C.2        1 MOL1         0.6168
       2    O1      20.124858   19.661051   27.833207 O.co2      1 MOL1        -0.6703
       3    O2      18.868563   20.585153   26.364101 O.co2      1 MOL1        -0.6703
       4    C2      20.078825   18.678768   25.692845 C.3        1 MOL1        -0.1963
       5    H1      19.230860   18.502835   25.022147 H          1 MOL1         0.0750
       6    H2      20.270473   17.739488   26.224922 H          1 MOL1         0.0750
       7    C3      21.336350   19.104066   24.890808 C.3        1 MOL1        -0.1860
       8    H3      21.149435   20.052344   24.371193 H          1 MOL1         0.0752
       9    H4      22.150339   19.306691   25.600364 H          1 MOL1         0.0752
      10    C4      21.817052   18.031107   23.884370 C.3        1 MOL1        -0.1858
      11    H5      22.069935   17.117712   24.439800 H          1 MOL1         0.0752
      12    H6      22.755685   18.373038   23.427455 H          1 MOL1         0.0752
      13    C5      20.818311   17.662693   22.755487 C.3        1 MOL1        -0.1858
      14    H7      21.275391   16.852000   22.171868 H          1 MOL1         0.0752
      15    H8      19.897570   17.235641   23.173645 H          1 MOL1         0.0752
      16    C6      20.486515   18.819229   21.777555 C.3        1 MOL1        -0.1858
      17    H9      20.364901   18.394903   20.771539 H          1 MOL1         0.0752
      18    H10     21.333988   19.515256   21.714423 H          1 MOL1         0.0752
      19    C7      19.190232   19.583471   22.133589 C.3        1 MOL1        -0.1834
      20    H11     18.347556   18.880006   22.177652 H          1 MOL1         0.0752
      21    H12     19.270760   20.040865   23.126855 H          1 MOL1         0.0752
      22    C8      18.880942   20.683635   21.098283 C.3        1 MOL1        -0.2849
      23    H13     18.750516   20.255381   20.095870 H          1 MOL1         0.0764
      24    H14     17.957352   21.214594   21.362990 H          1 MOL1         0.0764
      25    H15     19.694156   21.419843   21.054012 H          1 MOL1         0.0764
@<TRIPOS>BOND
    1     1     2    1
    2     1     3    2
    3     1     4    1
    4     4     5    1
    5     4     6    1
    6     4     7    1
    7     7     8    1
    8     7     9    1
    9     7    10    1
   10    10    11    1
   11    10    12    1
   12    10    13    1
   13    13    14    1
   14    13    15    1
   15    13    16    1
   16    16    17    1
   17    16    18    1
   18    16    19    1
   19    19    20    1
   20    19    21    1
   21    19    22    1
   22    22    23    1
   23    22    24    1
   24    22    25    1
@<TRIPOS>SUBSTRUCTURE
       1 MOL1            1 RESIDUE      1      MOL     
@<SCITEGIC>MOL_PROPERTY
VM2 Rank
SciTegic.value.IntegerValue
120

@<SCITEGIC>MOL_PROPERTY
Conf_Id
SciTegic.value.IntegerValue
975

@<SCITEGIC>MOL_PROPERTY
Probability
SciTegic.value.DoubleValue
0.00

@<SCITEGIC>MOL_PROPERTY
Sum Probability
SciTegic.value.DoubleValue
99.93

@<SCITEGIC>MOL_PROPERTY
Delta G
SciTegic.value.DoubleValue
5.134

@<SCITEGIC>MOL_PROPERTY
G
SciTegic.value.DoubleValue
-2.828

@<SCITEGIC>MOL_PROPERTY
E
SciTegic.value.DoubleValue
-28.109

@<SCITEGIC>MOL_PROPERTY
-TS
SciTegic.value.DoubleValue
25.281

@<SCITEGIC>MOL_PROPERTY
U+W
SciTegic.value.DoubleValue
-48.676

@<SCITEGIC>MOL_PROPERTY
U
SciTegic.value.DoubleValue
11.615

@<SCITEGIC>MOL_PROPERTY
W
SciTegic.value.DoubleValue
-60.292

@<SCITEGIC>MOL_PROPERTY
W(PB)
SciTegic.value.DoubleValue
-62.665

@<SCITEGIC>MOL_PROPERTY
W(SA)
SciTegic.value.DoubleValue
2.373

@<SCITEGIC>MOL_PROPERTY
Valence
SciTegic.value.DoubleValue
11.123

@<SCITEGIC>MOL_PROPERTY
Coulomb
SciTegic.value.DoubleValue
-0.039

@<SCITEGIC>MOL_PROPERTY
VdW
SciTegic.value.DoubleValue
0.532

@<SCITEGIC>MOL_PROPERTY
VdW6
SciTegic.value.DoubleValue
-10.780

@<SCITEGIC>MOL_PROPERTY
VdW12
SciTegic.value.DoubleValue
11.312

@<SCITEGIC>MOL_PROPERTY
Bond
SciTegic.value.DoubleValue
0.247

@<SCITEGIC>MOL_PROPERTY
Angle
SciTegic.value.DoubleValue
3.570

@<SCITEGIC>MOL_PROPERTY
Pdih
SciTegic.value.DoubleValue
7.306

@<SCITEGIC>MOL_PROPERTY
Idih
SciTegic.value.DoubleValue
0.001

@<SCITEGIC>MOL_PROPERTY
Tether
SciTegic.value.DoubleValue
0.000

@<TRIPOS>MOLECULE
guest-8_vm2.mol2 : vm2 ligand conformer 121
          25          24           1
SMALL
USER_CHARGES
 
@<TRIPOS>ATOM
       1    C1      20.590306   19.785058   26.704917 C.2        1 MOL1         0.6168
       2    O1      21.248278   20.737914   26.336517 O.co2      1 MOL1        -0.6703
       3    O2      20.154914   19.662859   27.832959 O.co2      1 MOL1        -0.6703
       4    C2      20.276476   18.691465   25.690585 C.3        1 MOL1        -0.1963
       5    H1      20.218619   17.736190   26.225548 H          1 MOL1         0.0750
       6    H2      21.124307   18.624250   25.000296 H          1 MOL1         0.0750
       7    C3      18.956823   18.951521   24.918320 C.3        1 MOL1        -0.1860
       8    H3      18.140167   19.049615   25.646712 H          1 MOL1         0.0752
       9    H4      19.009121   19.915124   24.395920 H          1 MOL1         0.0752
      10    C4      18.594044   17.824456   23.921654 C.3        1 MOL1        -0.1858
      11    H5      17.609166   18.043031   23.486958 H          1 MOL1         0.0752
      12    H6      18.472727   16.887082   24.481436 H          1 MOL1         0.0752
      13    C5      19.605425   17.584907   22.769562 C.3        1 MOL1        -0.1858
      14    H7      20.582544   17.279593   23.165811 H          1 MOL1         0.0752
      15    H8      19.242332   16.721582   22.195464 H          1 MOL1         0.0752
      16    C6      19.764204   18.772850   21.785897 C.3        1 MOL1        -0.1858
      17    H9      18.833535   19.354816   21.743238 H          1 MOL1         0.0752
      18    H10     19.915879   18.365984   20.776755 H          1 MOL1         0.0752
      19    C7      20.960073   19.696973   22.113111 C.3        1 MOL1        -0.1834
      20    H11     20.844595   20.141905   23.108586 H          1 MOL1         0.0752
      21    H12     21.886494   19.106983   22.136857 H          1 MOL1         0.0752
      22    C8      21.102457   20.825996   21.072478 C.3        1 MOL1        -0.2849
      23    H13     21.956418   21.471065   21.316695 H          1 MOL1         0.0764
      24    H14     21.263596   20.416327   20.066769 H          1 MOL1         0.0764
      25    H15     20.201018   21.452159   21.047812 H          1 MOL1         0.0764
@<TRIPOS>BOND
    1     1     2    1
    2     1     3    2
    3     1     4    1
    4     4     5    1
    5     4     6    1
    6     4     7    1
    7     7     8    1
    8     7     9    1
    9     7    10    1
   10    10    11    1
   11    10    12    1
   12    10    13    1
   13    13    14    1
   14    13    15    1
   15    13    16    1
   16    16    17    1
   17    16    18    1
   18    16    19    1
   19    19    20    1
   20    19    21    1
   21    19    22    1
   22    22    23    1
   23    22    24    1
   24    22    25    1
@<TRIPOS>SUBSTRUCTURE
       1 MOL1            1 RESIDUE      1      MOL     
@<SCITEGIC>MOL_PROPERTY
VM2 Rank
SciTegic.value.IntegerValue
121

@<SCITEGIC>MOL_PROPERTY
Conf_Id
SciTegic.value.IntegerValue
1083

@<SCITEGIC>MOL_PROPERTY
Probability
SciTegic.value.DoubleValue
0.00

@<SCITEGIC>MOL_PROPERTY
Sum Probability
SciTegic.value.DoubleValue
99.93

@<SCITEGIC>MOL_PROPERTY
Delta G
SciTegic.value.DoubleValue
5.143

@<SCITEGIC>MOL_PROPERTY
G
SciTegic.value.DoubleValue
-2.820

@<SCITEGIC>MOL_PROPERTY
E
SciTegic.value.DoubleValue
-28.100

@<SCITEGIC>MOL_PROPERTY
-TS
SciTegic.value.DoubleValue
25.281

@<SCITEGIC>MOL_PROPERTY
U+W
SciTegic.value.DoubleValue
-48.668

@<SCITEGIC>MOL_PROPERTY
U
SciTegic.value.DoubleValue
11.615

@<SCITEGIC>MOL_PROPERTY
W
SciTegic.value.DoubleValue
-60.283

@<SCITEGIC>MOL_PROPERTY
W(PB)
SciTegic.value.DoubleValue
-62.669

@<SCITEGIC>MOL_PROPERTY
W(SA)
SciTegic.value.DoubleValue
2.386

@<SCITEGIC>MOL_PROPERTY
Valence
SciTegic.value.DoubleValue
11.123

@<SCITEGIC>MOL_PROPERTY
Coulomb
SciTegic.value.DoubleValue
-0.039

@<SCITEGIC>MOL_PROPERTY
VdW
SciTegic.value.DoubleValue
0.532

@<SCITEGIC>MOL_PROPERTY
VdW6
SciTegic.value.DoubleValue
-10.780

@<SCITEGIC>MOL_PROPERTY
VdW12
SciTegic.value.DoubleValue
11.312

@<SCITEGIC>MOL_PROPERTY
Bond
SciTegic.value.DoubleValue
0.247

@<SCITEGIC>MOL_PROPERTY
Angle
SciTegic.value.DoubleValue
3.570

@<SCITEGIC>MOL_PROPERTY
Pdih
SciTegic.value.DoubleValue
7.305

@<SCITEGIC>MOL_PROPERTY
Idih
SciTegic.value.DoubleValue
0.001

@<SCITEGIC>MOL_PROPERTY
Tether
SciTegic.value.DoubleValue
0.000

@<TRIPOS>MOLECULE
guest-8_vm2.mol2 : vm2 ligand conformer 122
          25          24           1
SMALL
USER_CHARGES
 
@<TRIPOS>ATOM
       1    C1      19.620325   19.001399   26.490550 C.2        1 MOL1         0.6168
       2    O1      20.072936   18.157599   27.239537 O.co2      1 MOL1        -0.6703
       3    O2      18.516539   18.931549   25.987003 O.co2      1 MOL1        -0.6703
       4    C2      20.472060   20.233859   26.198035 C.3        1 MOL1        -0.1963
       5    H1      20.772466   20.657988   27.163106 H          1 MOL1         0.0750
       6    H2      19.843013   20.987235   25.710368 H          1 MOL1         0.0750
       7    C3      21.739033   19.944682   25.347033 C.3        1 MOL1        -0.1860
       8    H3      22.317464   20.871640   25.235551 H          1 MOL1         0.0752
       9    H4      22.382339   19.244933   25.898201 H          1 MOL1         0.0752
      10    C4      21.445919   19.354171   23.946076 C.3        1 MOL1        -0.1858
      11    H5      20.918315   18.397719   24.058836 H          1 MOL1         0.0752
      12    H6      22.401709   19.126574   23.455108 H          1 MOL1         0.0752
      13    C5      20.625059   20.303252   23.039759 C.3        1 MOL1        -0.1858
      14    H7      19.618916   20.441701   23.455637 H          1 MOL1         0.0752
      15    H8      21.096649   21.295132   23.038699 H          1 MOL1         0.0752
      16    C6      20.515107   19.811405   21.574454 C.3        1 MOL1        -0.1858
      17    H9      21.520544   19.779040   21.133276 H          1 MOL1         0.0752
      18    H10     19.953348   20.556061   20.994387 H          1 MOL1         0.0752
      19    C7      19.845905   18.426463   21.392131 C.3        1 MOL1        -0.1834
      20    H11     19.834210   18.181489   20.321253 H          1 MOL1         0.0752
      21    H12     20.450853   17.647766   21.875238 H          1 MOL1         0.0752
      22    C8      18.400118   18.369621   21.931422 C.3        1 MOL1        -0.2849
      23    H13     17.781584   19.157611   21.482831 H          1 MOL1         0.0764
      24    H14     17.939599   17.401538   21.696297 H          1 MOL1         0.0764
      25    H15     18.376634   18.492045   23.022495 H          1 MOL1         0.0764
@<TRIPOS>BOND
    1     1     2    1
    2     1     3    2
    3     1     4    1
    4     4     5    1
    5     4     6    1
    6     4     7    1
    7     7     8    1
    8     7     9    1
    9     7    10    1
   10    10    11    1
   11    10    12    1
   12    10    13    1
   13    13    14    1
   14    13    15    1
   15    13    16    1
   16    16    17    1
   17    16    18    1
   18    16    19    1
   19    19    20    1
   20    19    21    1
   21    19    22    1
   22    22    23    1
   23    22    24    1
   24    22    25    1
@<TRIPOS>SUBSTRUCTURE
       1 MOL1            1 RESIDUE      1      MOL     
@<SCITEGIC>MOL_PROPERTY
VM2 Rank
SciTegic.value.IntegerValue
122

@<SCITEGIC>MOL_PROPERTY
Conf_Id
SciTegic.value.IntegerValue
220

@<SCITEGIC>MOL_PROPERTY
Probability
SciTegic.value.DoubleValue
0.00

@<SCITEGIC>MOL_PROPERTY
Sum Probability
SciTegic.value.DoubleValue
99.94

@<SCITEGIC>MOL_PROPERTY
Delta G
SciTegic.value.DoubleValue
5.151

@<SCITEGIC>MOL_PROPERTY
G
SciTegic.value.DoubleValue
-2.812

@<SCITEGIC>MOL_PROPERTY
E
SciTegic.value.DoubleValue
-28.316

@<SCITEGIC>MOL_PROPERTY
-TS
SciTegic.value.DoubleValue
25.504

@<SCITEGIC>MOL_PROPERTY
U+W
SciTegic.value.DoubleValue
-48.883

@<SCITEGIC>MOL_PROPERTY
U
SciTegic.value.DoubleValue
12.037

@<SCITEGIC>MOL_PROPERTY
W
SciTegic.value.DoubleValue
-60.921

@<SCITEGIC>MOL_PROPERTY
W(PB)
SciTegic.value.DoubleValue
-63.263

@<SCITEGIC>MOL_PROPERTY
W(SA)
SciTegic.value.DoubleValue
2.342

@<SCITEGIC>MOL_PROPERTY
Valence
SciTegic.value.DoubleValue
9.200

@<SCITEGIC>MOL_PROPERTY
Coulomb
SciTegic.value.DoubleValue
2.438

@<SCITEGIC>MOL_PROPERTY
VdW
SciTegic.value.DoubleValue
0.400

@<SCITEGIC>MOL_PROPERTY
VdW6
SciTegic.value.DoubleValue
-11.698

@<SCITEGIC>MOL_PROPERTY
VdW12
SciTegic.value.DoubleValue
12.097

@<SCITEGIC>MOL_PROPERTY
Bond
SciTegic.value.DoubleValue
0.260

@<SCITEGIC>MOL_PROPERTY
Angle
SciTegic.value.DoubleValue
3.326

@<SCITEGIC>MOL_PROPERTY
Pdih
SciTegic.value.DoubleValue
5.612

@<SCITEGIC>MOL_PROPERTY
Idih
SciTegic.value.DoubleValue
0.002

@<SCITEGIC>MOL_PROPERTY
Tether
SciTegic.value.DoubleValue
0.000

@<TRIPOS>MOLECULE
guest-8_vm2.mol2 : vm2 ligand conformer 123
          25          24           1
SMALL
USER_CHARGES
 
@<TRIPOS>ATOM
       1    C1      20.381736   19.264337   27.178206 C.2        1 MOL1         0.6168
       2    O1      21.325852   19.982958   27.441577 O.co2      1 MOL1        -0.6703
       3    O2      19.324583   19.296416   27.776956 O.co2      1 MOL1        -0.6703
       4    C2      20.541629   18.252941   26.046524 C.3        1 MOL1        -0.1963
       5    H1      19.772854   17.478585   26.156771 H          1 MOL1         0.0750
       6    H2      21.511024   17.759664   26.183945 H          1 MOL1         0.0750
       7    C3      20.474980   18.875774   24.627672 C.3        1 MOL1        -0.1860
       8    H3      21.218630   19.680636   24.547312 H          1 MOL1         0.0752
       9    H4      20.754456   18.104766   23.898537 H          1 MOL1         0.0752
      10    C4      19.069623   19.421126   24.282647 C.3        1 MOL1        -0.1858
      11    H5      18.746859   20.113212   25.072398 H          1 MOL1         0.0752
      12    H6      18.346697   18.594021   24.285926 H          1 MOL1         0.0752
      13    C5      18.991981   20.167270   22.926966 C.3        1 MOL1        -0.1858
      14    H7      17.967745   20.549500   22.818921 H          1 MOL1         0.0752
      15    H8      19.640065   21.054078   22.947731 H          1 MOL1         0.0752
      16    C6      19.313996   19.294350   21.687321 C.3        1 MOL1        -0.1858
      17    H9      18.650556   19.597558   20.865830 H          1 MOL1         0.0752
      18    H10     19.079960   18.241472   21.895923 H          1 MOL1         0.0752
      19    C7      20.775352   19.435782   21.202137 C.3        1 MOL1        -0.1834
      20    H11     20.975530   20.483889   20.940267 H          1 MOL1         0.0752
      21    H12     21.475443   19.174223   22.004725 H          1 MOL1         0.0752
      22    C8      21.053268   18.543046   19.975994 C.3        1 MOL1        -0.2849
      23    H13     20.393895   18.807998   19.139134 H          1 MOL1         0.0764
      24    H14     22.091619   18.660102   19.639637 H          1 MOL1         0.0764
      25    H15     20.892582   17.484169   20.217432 H          1 MOL1         0.0764
@<TRIPOS>BOND
    1     1     2    1
    2     1     3    2
    3     1     4    1
    4     4     5    1
    5     4     6    1
    6     4     7    1
    7     7     8    1
    8     7     9    1
    9     7    10    1
   10    10    11    1
   11    10    12    1
   12    10    13    1
   13    13    14    1
   14    13    15    1
   15    13    16    1
   16    16    17    1
   17    16    18    1
   18    16    19    1
   19    19    20    1
   20    19    21    1
   21    19    22    1
   22    22    23    1
   23    22    24    1
   24    22    25    1
@<TRIPOS>SUBSTRUCTURE
       1 MOL1            1 RESIDUE      1      MOL     
@<SCITEGIC>MOL_PROPERTY
VM2 Rank
SciTegic.value.IntegerValue
123

@<SCITEGIC>MOL_PROPERTY
Conf_Id
SciTegic.value.IntegerValue
538

@<SCITEGIC>MOL_PROPERTY
Probability
SciTegic.value.DoubleValue
0.00

@<SCITEGIC>MOL_PROPERTY
Sum Probability
SciTegic.value.DoubleValue
99.94

@<SCITEGIC>MOL_PROPERTY
Delta G
SciTegic.value.DoubleValue
5.300

@<SCITEGIC>MOL_PROPERTY
G
SciTegic.value.DoubleValue
-2.662

@<SCITEGIC>MOL_PROPERTY
E
SciTegic.value.DoubleValue
-27.773

@<SCITEGIC>MOL_PROPERTY
-TS
SciTegic.value.DoubleValue
25.111

@<SCITEGIC>MOL_PROPERTY
U+W
SciTegic.value.DoubleValue
-48.341

@<SCITEGIC>MOL_PROPERTY
U
SciTegic.value.DoubleValue
11.468

@<SCITEGIC>MOL_PROPERTY
W
SciTegic.value.DoubleValue
-59.808

@<SCITEGIC>MOL_PROPERTY
W(PB)
SciTegic.value.DoubleValue
-62.220

@<SCITEGIC>MOL_PROPERTY
W(SA)
SciTegic.value.DoubleValue
2.412

@<SCITEGIC>MOL_PROPERTY
Valence
SciTegic.value.DoubleValue
10.870

@<SCITEGIC>MOL_PROPERTY
Coulomb
SciTegic.value.DoubleValue
-0.266

@<SCITEGIC>MOL_PROPERTY
VdW
SciTegic.value.DoubleValue
0.864

@<SCITEGIC>MOL_PROPERTY
VdW6
SciTegic.value.DoubleValue
-10.146

@<SCITEGIC>MOL_PROPERTY
VdW12
SciTegic.value.DoubleValue
11.010

@<SCITEGIC>MOL_PROPERTY
Bond
SciTegic.value.DoubleValue
0.218

@<SCITEGIC>MOL_PROPERTY
Angle
SciTegic.value.DoubleValue
3.178

@<SCITEGIC>MOL_PROPERTY
Pdih
SciTegic.value.DoubleValue
7.473

@<SCITEGIC>MOL_PROPERTY
Idih
SciTegic.value.DoubleValue
0.001

@<SCITEGIC>MOL_PROPERTY
Tether
SciTegic.value.DoubleValue
0.000

@<TRIPOS>MOLECULE
guest-8_vm2.mol2 : vm2 ligand conformer 124
          25          24           1
SMALL
USER_CHARGES
 
@<TRIPOS>ATOM
       1    C1      19.819631   19.318122   27.105555 C.2        1 MOL1         0.6168
       2    O1      20.607535   19.906231   27.820040 O.co2      1 MOL1        -0.6703
       3    O2      18.644871   19.615155   27.012337 O.co2      1 MOL1        -0.6703
       4    C2      20.331465   18.129012   26.297428 C.3        1 MOL1        -0.1963
       5    H1      19.473406   17.518202   25.991657 H          1 MOL1         0.0750
       6    H2      20.937086   17.511256   26.970875 H          1 MOL1         0.0750
       7    C3      21.175492   18.525137   25.058176 C.3        1 MOL1        -0.1860
       8    H3      22.015030   19.158620   25.376694 H          1 MOL1         0.0752
       9    H4      21.612425   17.617638   24.619973 H          1 MOL1         0.0752
      10    C4      20.343717   19.259309   23.982545 C.3        1 MOL1        -0.1858
      11    H5      19.919429   20.178453   24.409419 H          1 MOL1         0.0752
      12    H6      19.494938   18.630408   23.689044 H          1 MOL1         0.0752
      13    C5      21.200427   19.619493   22.745904 C.3        1 MOL1        -0.1858
      14    H7      22.018457   20.274168   23.076252 H          1 MOL1         0.0752
      15    H8      21.676106   18.718984   22.334125 H          1 MOL1         0.0752
      16    C6      20.401932   20.352232   21.637790 C.3        1 MOL1        -0.1858
      17    H9      21.064218   21.096888   21.175502 H          1 MOL1         0.0752
      18    H10     19.573568   20.923032   22.079259 H          1 MOL1         0.0752
      19    C7      19.872804   19.434571   20.507822 C.3        1 MOL1        -0.1834
      20    H11     19.397513   20.063180   19.742243 H          1 MOL1         0.0752
      21    H12     20.717348   18.934699   20.013758 H          1 MOL1         0.0752
      22    C8      18.855125   18.374737   20.978404 C.3        1 MOL1        -0.2849
      23    H13     18.031040   18.839454   21.535119 H          1 MOL1         0.0764
      24    H14     18.426667   17.845124   20.117778 H          1 MOL1         0.0764
      25    H15     19.333155   17.626064   21.622288 H          1 MOL1         0.0764
@<TRIPOS>BOND
    1     1     2    1
    2     1     3    2
    3     1     4    1
    4     4     5    1
    5     4     6    1
    6     4     7    1
    7     7     8    1
    8     7     9    1
    9     7    10    1
   10    10    11    1
   11    10    12    1
   12    10    13    1
   13    13    14    1
   14    13    15    1
   15    13    16    1
   16    16    17    1
   17    16    18    1
   18    16    19    1
   19    19    20    1
   20    19    21    1
   21    19    22    1
   22    22    23    1
   23    22    24    1
   24    22    25    1
@<TRIPOS>SUBSTRUCTURE
       1 MOL1            1 RESIDUE      1      MOL     
@<SCITEGIC>MOL_PROPERTY
VM2 Rank
SciTegic.value.IntegerValue
124

@<SCITEGIC>MOL_PROPERTY
Conf_Id
SciTegic.value.IntegerValue
415

@<SCITEGIC>MOL_PROPERTY
Probability
SciTegic.value.DoubleValue
0.00

@<SCITEGIC>MOL_PROPERTY
Sum Probability
SciTegic.value.DoubleValue
99.94

@<SCITEGIC>MOL_PROPERTY
Delta G
SciTegic.value.DoubleValue
5.301

@<SCITEGIC>MOL_PROPERTY
G
SciTegic.value.DoubleValue
-2.662

@<SCITEGIC>MOL_PROPERTY
E
SciTegic.value.DoubleValue
-27.708

@<SCITEGIC>MOL_PROPERTY
-TS
SciTegic.value.DoubleValue
25.047

@<SCITEGIC>MOL_PROPERTY
U+W
SciTegic.value.DoubleValue
-48.276

@<SCITEGIC>MOL_PROPERTY
U
SciTegic.value.DoubleValue
11.935

@<SCITEGIC>MOL_PROPERTY
W
SciTegic.value.DoubleValue
-60.211

@<SCITEGIC>MOL_PROPERTY
W(PB)
SciTegic.value.DoubleValue
-62.649

@<SCITEGIC>MOL_PROPERTY
W(SA)
SciTegic.value.DoubleValue
2.438

@<SCITEGIC>MOL_PROPERTY
Valence
SciTegic.value.DoubleValue
10.764

@<SCITEGIC>MOL_PROPERTY
Coulomb
SciTegic.value.DoubleValue
0.351

@<SCITEGIC>MOL_PROPERTY
VdW
SciTegic.value.DoubleValue
0.820

@<SCITEGIC>MOL_PROPERTY
VdW6
SciTegic.value.DoubleValue
-10.096

@<SCITEGIC>MOL_PROPERTY
VdW12
SciTegic.value.DoubleValue
10.916

@<SCITEGIC>MOL_PROPERTY
Bond
SciTegic.value.DoubleValue
0.214

@<SCITEGIC>MOL_PROPERTY
Angle
SciTegic.value.DoubleValue
3.143

@<SCITEGIC>MOL_PROPERTY
Pdih
SciTegic.value.DoubleValue
7.406

@<SCITEGIC>MOL_PROPERTY
Idih
SciTegic.value.DoubleValue
0.001

@<SCITEGIC>MOL_PROPERTY
Tether
SciTegic.value.DoubleValue
0.000

@<TRIPOS>MOLECULE
guest-8_vm2.mol2 : vm2 ligand conformer 125
          25          24           1
SMALL
USER_CHARGES
 
@<TRIPOS>ATOM
       1    C1      20.119523   19.086652   27.205055 C.2        1 MOL1         0.6168
       2    O1      21.002323   19.636283   27.834108 O.co2      1 MOL1        -0.6703
       3    O2      18.942551   19.151051   27.501082 O.co2      1 MOL1        -0.6703
       4    C2      20.514772   18.256022   25.987365 C.3        1 MOL1        -0.1963
       5    H1      19.693235   17.569223   25.750346 H          1 MOL1         0.0750
       6    H2      21.372163   17.637200   26.276954 H          1 MOL1         0.0750
       7    C3      20.883065   19.100051   24.739565 C.3        1 MOL1        -0.1860
       8    H3      21.688110   19.800595   25.001319 H          1 MOL1         0.0752
       9    H4      21.290550   18.432695   23.971298 H          1 MOL1         0.0752
      10    C4      19.673530   19.885284   24.175959 C.3        1 MOL1        -0.1858
      11    H5      19.328309   20.588095   24.946718 H          1 MOL1         0.0752
      12    H6      18.831435   19.206147   23.984924 H          1 MOL1         0.0752
      13    C5      20.009602   20.690408   22.895080 C.3        1 MOL1        -0.1858
      14    H7      19.454805   21.637873   22.931853 H          1 MOL1         0.0752
      15    H8      21.072547   20.967787   22.886968 H          1 MOL1         0.0752
      16    C6      19.634230   19.982244   21.568943 C.3        1 MOL1        -0.1858
      17    H9      19.841939   20.671938   20.739478 H          1 MOL1         0.0752
      18    H10     18.551976   19.794673   21.549404 H          1 MOL1         0.0752
      19    C7      20.388300   18.657892   21.319686 C.3        1 MOL1        -0.1834
      20    H11     21.469949   18.821155   21.421708 H          1 MOL1         0.0752
      21    H12     20.098100   17.916089   22.075232 H          1 MOL1         0.0752
      22    C8      20.085104   18.088113   19.919156 C.3        1 MOL1        -0.2849
      23    H13     20.395609   18.789272   19.133496 H          1 MOL1         0.0764
      24    H14     20.621931   17.143664   19.761538 H          1 MOL1         0.0764
      25    H15     19.011555   17.891968   19.799331 H          1 MOL1         0.0764
@<TRIPOS>BOND
    1     1     2    1
    2     1     3    2
    3     1     4    1
    4     4     5    1
    5     4     6    1
    6     4     7    1
    7     7     8    1
    8     7     9    1
    9     7    10    1
   10    10    11    1
   11    10    12    1
   12    10    13    1
   13    13    14    1
   14    13    15    1
   15    13    16    1
   16    16    17    1
   17    16    18    1
   18    16    19    1
   19    19    20    1
   20    19    21    1
   21    19    22    1
   22    22    23    1
   23    22    24    1
   24    22    25    1
@<TRIPOS>SUBSTRUCTURE
       1 MOL1            1 RESIDUE      1      MOL     
@<SCITEGIC>MOL_PROPERTY
VM2 Rank
SciTegic.value.IntegerValue
125

@<SCITEGIC>MOL_PROPERTY
Conf_Id
SciTegic.value.IntegerValue
549

@<SCITEGIC>MOL_PROPERTY
Probability
SciTegic.value.DoubleValue
0.00

@<SCITEGIC>MOL_PROPERTY
Sum Probability
SciTegic.value.DoubleValue
99.94

@<SCITEGIC>MOL_PROPERTY
Delta G
SciTegic.value.DoubleValue
5.316

@<SCITEGIC>MOL_PROPERTY
G
SciTegic.value.DoubleValue
-2.646

@<SCITEGIC>MOL_PROPERTY
E
SciTegic.value.DoubleValue
-27.726

@<SCITEGIC>MOL_PROPERTY
-TS
SciTegic.value.DoubleValue
25.080

@<SCITEGIC>MOL_PROPERTY
U+W
SciTegic.value.DoubleValue
-48.294

@<SCITEGIC>MOL_PROPERTY
U
SciTegic.value.DoubleValue
11.345

@<SCITEGIC>MOL_PROPERTY
W
SciTegic.value.DoubleValue
-59.639

@<SCITEGIC>MOL_PROPERTY
W(PB)
SciTegic.value.DoubleValue
-62.076

@<SCITEGIC>MOL_PROPERTY
W(SA)
SciTegic.value.DoubleValue
2.437

@<SCITEGIC>MOL_PROPERTY
Valence
SciTegic.value.DoubleValue
10.840

@<SCITEGIC>MOL_PROPERTY
Coulomb
SciTegic.value.DoubleValue
-0.332

@<SCITEGIC>MOL_PROPERTY
VdW
SciTegic.value.DoubleValue
0.838

@<SCITEGIC>MOL_PROPERTY
VdW6
SciTegic.value.DoubleValue
-10.154

@<SCITEGIC>MOL_PROPERTY
VdW12
SciTegic.value.DoubleValue
10.991

@<SCITEGIC>MOL_PROPERTY
Bond
SciTegic.value.DoubleValue
0.219

@<SCITEGIC>MOL_PROPERTY
Angle
SciTegic.value.DoubleValue
3.144

@<SCITEGIC>MOL_PROPERTY
Pdih
SciTegic.value.DoubleValue
7.476

@<SCITEGIC>MOL_PROPERTY
Idih
SciTegic.value.DoubleValue
0.000

@<SCITEGIC>MOL_PROPERTY
Tether
SciTegic.value.DoubleValue
0.000

@<TRIPOS>MOLECULE
guest-8_vm2.mol2 : vm2 ligand conformer 126
          25          24           1
SMALL
USER_CHARGES
 
@<TRIPOS>ATOM
       1    C1      20.218510   19.092976   27.203965 C.2        1 MOL1         0.6168
       2    O1      21.384333   19.306155   27.473138 O.co2      1 MOL1        -0.6703
       3    O2      19.287873   19.527479   27.853781 O.co2      1 MOL1        -0.6703
       4    C2      19.903806   18.217208   25.994450 C.3        1 MOL1        -0.1963
       5    H1      19.138491   17.495272   26.302711 H          1 MOL1         0.0750
       6    H2      20.800018   17.639562   25.737696 H          1 MOL1         0.0750
       7    C3      19.403164   19.005993   24.756627 C.3        1 MOL1        -0.1860
       8    H3      19.065839   18.291297   23.996981 H          1 MOL1         0.0752
       9    H4      18.522194   19.599468   25.037789 H          1 MOL1         0.0752
      10    C4      20.490386   19.937074   24.166495 C.3        1 MOL1        -0.1858
      11    H5      21.406984   19.369612   23.955111 H          1 MOL1         0.0752
      12    H6      20.761607   20.679004   24.930150 H          1 MOL1         0.0752
      13    C5      20.025786   20.691402   22.894895 C.3        1 MOL1        -0.1858
      14    H7      18.936397   20.832148   22.911696 H          1 MOL1         0.0752
      15    H8      20.457036   21.701462   22.920281 H          1 MOL1         0.0752
      16    C6      20.457011   20.034475   21.559405 C.3        1 MOL1        -0.1858
      17    H9      21.553554   19.985186   21.514657 H          1 MOL1         0.0752
      18    H10     20.144723   20.691190   20.735974 H          1 MOL1         0.0752
      19    C7      19.870855   18.625070   21.325617 C.3        1 MOL1        -0.1834
      20    H11     20.269843   17.926990   22.073165 H          1 MOL1         0.0752
      21    H12     18.779888   18.650439   21.452788 H          1 MOL1         0.0752
      22    C8      20.211276   18.096167   19.917629 C.3        1 MOL1        -0.2849
      23    H13     19.794641   17.091213   19.771024 H          1 MOL1         0.0764
      24    H14     19.796610   18.751318   19.140372 H          1 MOL1         0.0764
      25    H15     21.297957   18.037115   19.772804 H          1 MOL1         0.0764
@<TRIPOS>BOND
    1     1     2    1
    2     1     3    2
    3     1     4    1
    4     4     5    1
    5     4     6    1
    6     4     7    1
    7     7     8    1
    8     7     9    1
    9     7    10    1
   10    10    11    1
   11    10    12    1
   12    10    13    1
   13    13    14    1
   14    13    15    1
   15    13    16    1
   16    16    17    1
   17    16    18    1
   18    16    19    1
   19    19    20    1
   20    19    21    1
   21    19    22    1
   22    22    23    1
   23    22    24    1
   24    22    25    1
@<TRIPOS>SUBSTRUCTURE
       1 MOL1            1 RESIDUE      1      MOL     
@<SCITEGIC>MOL_PROPERTY
VM2 Rank
SciTegic.value.IntegerValue
126

@<SCITEGIC>MOL_PROPERTY
Conf_Id
SciTegic.value.IntegerValue
252

@<SCITEGIC>MOL_PROPERTY
Probability
SciTegic.value.DoubleValue
0.00

@<SCITEGIC>MOL_PROPERTY
Sum Probability
SciTegic.value.DoubleValue
99.95

@<SCITEGIC>MOL_PROPERTY
Delta G
SciTegic.value.DoubleValue
5.319

@<SCITEGIC>MOL_PROPERTY
G
SciTegic.value.DoubleValue
-2.644

@<SCITEGIC>MOL_PROPERTY
E
SciTegic.value.DoubleValue
-27.724

@<SCITEGIC>MOL_PROPERTY
-TS
SciTegic.value.DoubleValue
25.080

@<SCITEGIC>MOL_PROPERTY
U+W
SciTegic.value.DoubleValue
-48.292

@<SCITEGIC>MOL_PROPERTY
U
SciTegic.value.DoubleValue
11.345

@<SCITEGIC>MOL_PROPERTY
W
SciTegic.value.DoubleValue
-59.636

@<SCITEGIC>MOL_PROPERTY
W(PB)
SciTegic.value.DoubleValue
-62.100

@<SCITEGIC>MOL_PROPERTY
W(SA)
SciTegic.value.DoubleValue
2.464

@<SCITEGIC>MOL_PROPERTY
Valence
SciTegic.value.DoubleValue
10.840

@<SCITEGIC>MOL_PROPERTY
Coulomb
SciTegic.value.DoubleValue
-0.333

@<SCITEGIC>MOL_PROPERTY
VdW
SciTegic.value.DoubleValue
0.838

@<SCITEGIC>MOL_PROPERTY
VdW6
SciTegic.value.DoubleValue
-10.154

@<SCITEGIC>MOL_PROPERTY
VdW12
SciTegic.value.DoubleValue
10.991

@<SCITEGIC>MOL_PROPERTY
Bond
SciTegic.value.DoubleValue
0.219

@<SCITEGIC>MOL_PROPERTY
Angle
SciTegic.value.DoubleValue
3.144

@<SCITEGIC>MOL_PROPERTY
Pdih
SciTegic.value.DoubleValue
7.476

@<SCITEGIC>MOL_PROPERTY
Idih
SciTegic.value.DoubleValue
0.000

@<SCITEGIC>MOL_PROPERTY
Tether
SciTegic.value.DoubleValue
0.000

@<TRIPOS>MOLECULE
guest-8_vm2.mol2 : vm2 ligand conformer 127
          25          24           1
SMALL
USER_CHARGES
 
@<TRIPOS>ATOM
       1    C1      20.558491   19.251210   26.963086 C.2        1 MOL1         0.6168
       2    O1      21.767699   19.139978   26.912816 O.co2      1 MOL1        -0.6703
       3    O2      19.841676   18.515387   27.612593 O.co2      1 MOL1        -0.6703
       4    C2      19.908464   20.391248   26.184149 C.3        1 MOL1        -0.1963
       5    H1      20.507286   21.292619   26.359918 H          1 MOL1         0.0750
       6    H2      18.915105   20.582635   26.607626 H          1 MOL1         0.0750
       7    C3      19.800834   20.130156   24.659310 C.3        1 MOL1        -0.1860
       8    H3      19.442731   21.042832   24.164466 H          1 MOL1         0.0752
       9    H4      20.803924   19.920964   24.264715 H          1 MOL1         0.0752
      10    C4      18.848853   18.958701   24.324554 C.3        1 MOL1        -0.1858
      11    H5      17.890557   19.120279   24.836781 H          1 MOL1         0.0752
      12    H6      19.259513   18.024082   24.730903 H          1 MOL1         0.0752
      13    C5      18.568286   18.779213   22.811446 C.3        1 MOL1        -0.1858
      14    H7      17.843608   17.960440   22.705231 H          1 MOL1         0.0752
      15    H8      18.069336   19.672439   22.411442 H          1 MOL1         0.0752
      16    C6      19.815586   18.432244   21.959269 C.3        1 MOL1        -0.1858
      17    H9      19.515493   17.723541   21.175305 H          1 MOL1         0.0752
      18    H10     20.559697   17.909201   22.575517 H          1 MOL1         0.0752
      19    C7      20.452846   19.664025   21.275518 C.3        1 MOL1        -0.1834
      20    H11     19.712995   20.144613   20.620685 H          1 MOL1         0.0752
      21    H12     20.743676   20.412358   22.022500 H          1 MOL1         0.0752
      22    C8      21.690264   19.271839   20.443260 C.3        1 MOL1        -0.2849
      23    H13     22.126836   20.155157   19.959362 H          1 MOL1         0.0764
      24    H14     22.461843   18.817295   21.078416 H          1 MOL1         0.0764
      25    H15     21.424187   18.551943   19.658243 H          1 MOL1         0.0764
@<TRIPOS>BOND
    1     1     2    1
    2     1     3    2
    3     1     4    1
    4     4     5    1
    5     4     6    1
    6     4     7    1
    7     7     8    1
    8     7     9    1
    9     7    10    1
   10    10    11    1
   11    10    12    1
   12    10    13    1
   13    13    14    1
   14    13    15    1
   15    13    16    1
   16    16    17    1
   17    16    18    1
   18    16    19    1
   19    19    20    1
   20    19    21    1
   21    19    22    1
   22    22    23    1
   23    22    24    1
   24    22    25    1
@<TRIPOS>SUBSTRUCTURE
       1 MOL1            1 RESIDUE      1      MOL     
@<SCITEGIC>MOL_PROPERTY
VM2 Rank
SciTegic.value.IntegerValue
127

@<SCITEGIC>MOL_PROPERTY
Conf_Id
SciTegic.value.IntegerValue
563

@<SCITEGIC>MOL_PROPERTY
Probability
SciTegic.value.DoubleValue
0.00

@<SCITEGIC>MOL_PROPERTY
Sum Probability
SciTegic.value.DoubleValue
99.95

@<SCITEGIC>MOL_PROPERTY
Delta G
SciTegic.value.DoubleValue
5.327

@<SCITEGIC>MOL_PROPERTY
G
SciTegic.value.DoubleValue
-2.635

@<SCITEGIC>MOL_PROPERTY
E
SciTegic.value.DoubleValue
-27.714

@<SCITEGIC>MOL_PROPERTY
-TS
SciTegic.value.DoubleValue
25.078

@<SCITEGIC>MOL_PROPERTY
U+W
SciTegic.value.DoubleValue
-48.281

@<SCITEGIC>MOL_PROPERTY
U
SciTegic.value.DoubleValue
12.004

@<SCITEGIC>MOL_PROPERTY
W
SciTegic.value.DoubleValue
-60.285

@<SCITEGIC>MOL_PROPERTY
W(PB)
SciTegic.value.DoubleValue
-62.708

@<SCITEGIC>MOL_PROPERTY
W(SA)
SciTegic.value.DoubleValue
2.423

@<SCITEGIC>MOL_PROPERTY
Valence
SciTegic.value.DoubleValue
10.797

@<SCITEGIC>MOL_PROPERTY
Coulomb
SciTegic.value.DoubleValue
0.449

@<SCITEGIC>MOL_PROPERTY
VdW
SciTegic.value.DoubleValue
0.758

@<SCITEGIC>MOL_PROPERTY
VdW6
SciTegic.value.DoubleValue
-10.233

@<SCITEGIC>MOL_PROPERTY
VdW12
SciTegic.value.DoubleValue
10.990

@<SCITEGIC>MOL_PROPERTY
Bond
SciTegic.value.DoubleValue
0.215

@<SCITEGIC>MOL_PROPERTY
Angle
SciTegic.value.DoubleValue
3.136

@<SCITEGIC>MOL_PROPERTY
Pdih
SciTegic.value.DoubleValue
7.446

@<SCITEGIC>MOL_PROPERTY
Idih
SciTegic.value.DoubleValue
0.001

@<SCITEGIC>MOL_PROPERTY
Tether
SciTegic.value.DoubleValue
0.000

@<TRIPOS>MOLECULE
guest-8_vm2.mol2 : vm2 ligand conformer 128
          25          24           1
SMALL
USER_CHARGES
 
@<TRIPOS>ATOM
       1    C1      20.018018   19.321835   26.963709 C.2        1 MOL1         0.6168
       2    O1      20.891709   19.665120   27.736007 O.co2      1 MOL1        -0.6703
       3    O2      18.874905   19.731183   27.017476 O.co2      1 MOL1        -0.6703
       4    C2      20.371030   18.298179   25.888319 C.3        1 MOL1        -0.1963
       5    H1      19.442225   17.889733   25.474120 H          1 MOL1         0.0750
       6    H2      20.882271   17.465739   26.385475 H          1 MOL1         0.0750
       7    C3      21.276298   18.854943   24.755797 C.3        1 MOL1        -0.1860
       8    H3      22.221165   19.199935   25.197628 H          1 MOL1         0.0752
       9    H4      21.543237   18.038710   24.072219 H          1 MOL1         0.0752
      10    C4      20.648780   20.022799   23.951789 C.3        1 MOL1        -0.1858
      11    H5      21.373554   20.369010   23.203385 H          1 MOL1         0.0752
      12    H6      20.489468   20.875612   24.625640 H          1 MOL1         0.0752
      13    C5      19.306321   19.692075   23.248646 C.3        1 MOL1        -0.1858
      14    H7      18.539529   19.496867   24.010069 H          1 MOL1         0.0752
      15    H8      18.960150   20.585074   22.712360 H          1 MOL1         0.0752
      16    C6      19.353593   18.492121   22.266307 C.3        1 MOL1        -0.1858
      17    H9      18.354651   18.356772   21.830261 H          1 MOL1         0.0752
      18    H10     19.559556   17.571762   22.828157 H          1 MOL1         0.0752
      19    C7      20.385673   18.621562   21.118999 C.3        1 MOL1        -0.1834
      20    H11     21.402291   18.679028   21.529819 H          1 MOL1         0.0752
      21    H12     20.353288   17.705272   20.513832 H          1 MOL1         0.0752
      22    C8      20.126672   19.834184   20.198951 C.3        1 MOL1        -0.2849
      23    H13     20.256281   20.779784   20.740193 H          1 MOL1         0.0764
      24    H14     20.829478   19.834015   19.355877 H          1 MOL1         0.0764
      25    H15     19.107980   19.807151   19.790955 H          1 MOL1         0.0764
@<TRIPOS>BOND
    1     1     2    1
    2     1     3    2
    3     1     4    1
    4     4     5    1
    5     4     6    1
    6     4     7    1
    7     7     8    1
    8     7     9    1
    9     7    10    1
   10    10    11    1
   11    10    12    1
   12    10    13    1
   13    13    14    1
   14    13    15    1
   15    13    16    1
   16    16    17    1
   17    16    18    1
   18    16    19    1
   19    19    20    1
   20    19    21    1
   21    19    22    1
   22    22    23    1
   23    22    24    1
   24    22    25    1
@<TRIPOS>SUBSTRUCTURE
       1 MOL1            1 RESIDUE      1      MOL     
@<SCITEGIC>MOL_PROPERTY
VM2 Rank
SciTegic.value.IntegerValue
128

@<SCITEGIC>MOL_PROPERTY
Conf_Id
SciTegic.value.IntegerValue
146

@<SCITEGIC>MOL_PROPERTY
Probability
SciTegic.value.DoubleValue
0.00

@<SCITEGIC>MOL_PROPERTY
Sum Probability
SciTegic.value.DoubleValue
99.95

@<SCITEGIC>MOL_PROPERTY
Delta G
SciTegic.value.DoubleValue
5.345

@<SCITEGIC>MOL_PROPERTY
G
SciTegic.value.DoubleValue
-2.618

@<SCITEGIC>MOL_PROPERTY
E
SciTegic.value.DoubleValue
-28.450

@<SCITEGIC>MOL_PROPERTY
-TS
SciTegic.value.DoubleValue
25.832

@<SCITEGIC>MOL_PROPERTY
U+W
SciTegic.value.DoubleValue
-49.017

@<SCITEGIC>MOL_PROPERTY
U
SciTegic.value.DoubleValue
11.078

@<SCITEGIC>MOL_PROPERTY
W
SciTegic.value.DoubleValue
-60.096

@<SCITEGIC>MOL_PROPERTY
W(PB)
SciTegic.value.DoubleValue
-62.453

@<SCITEGIC>MOL_PROPERTY
W(SA)
SciTegic.value.DoubleValue
2.357

@<SCITEGIC>MOL_PROPERTY
Valence
SciTegic.value.DoubleValue
9.623

@<SCITEGIC>MOL_PROPERTY
Coulomb
SciTegic.value.DoubleValue
0.949

@<SCITEGIC>MOL_PROPERTY
VdW
SciTegic.value.DoubleValue
0.506

@<SCITEGIC>MOL_PROPERTY
VdW6
SciTegic.value.DoubleValue
-12.338

@<SCITEGIC>MOL_PROPERTY
VdW12
SciTegic.value.DoubleValue
12.845

@<SCITEGIC>MOL_PROPERTY
Bond
SciTegic.value.DoubleValue
0.307

@<SCITEGIC>MOL_PROPERTY
Angle
SciTegic.value.DoubleValue
3.790

@<SCITEGIC>MOL_PROPERTY
Pdih
SciTegic.value.DoubleValue
5.525

@<SCITEGIC>MOL_PROPERTY
Idih
SciTegic.value.DoubleValue
0.001

@<SCITEGIC>MOL_PROPERTY
Tether
SciTegic.value.DoubleValue
0.000

@<TRIPOS>MOLECULE
guest-8_vm2.mol2 : vm2 ligand conformer 129
          25          24           1
SMALL
USER_CHARGES
 
@<TRIPOS>ATOM
       1    C1      19.935392   19.235981   27.183290 C.2        1 MOL1         0.6168
       2    O1      20.993428   19.403034   27.757533 O.co2      1 MOL1        -0.6703
       3    O2      18.913963   19.829270   27.469345 O.co2      1 MOL1        -0.6703
       4    C2      19.879238   18.210723   26.054183 C.3        1 MOL1        -0.1963
       5    H1      18.983672   17.598644   26.213103 H          1 MOL1         0.0750
       6    H2      20.742376   17.540342   26.145709 H          1 MOL1         0.0750
       7    C3      19.833792   18.834805   24.635045 C.3        1 MOL1        -0.1860
       8    H3      19.637705   18.033471   23.911433 H          1 MOL1         0.0752
       9    H4      18.992422   19.538730   24.572900 H          1 MOL1         0.0752
      10    C4      21.150347   19.553464   24.258626 C.3        1 MOL1        -0.1858
      11    H5      21.972202   18.824713   24.244093 H          1 MOL1         0.0752
      12    H6      21.400800   20.282051   25.041762 H          1 MOL1         0.0752
      13    C5      21.101590   20.301446   22.902611 C.3        1 MOL1        -0.1858
      14    H7      20.347047   21.099050   22.939613 H          1 MOL1         0.0752
      15    H8      22.066393   20.810182   22.771553 H          1 MOL1         0.0752
      16    C6      20.864241   19.392965   21.669430 C.3        1 MOL1        -0.1858
      17    H9      21.234524   18.378521   21.871013 H          1 MOL1         0.0752
      18    H10     21.464789   19.776585   20.833301 H          1 MOL1         0.0752
      19    C7      19.385934   19.347442   21.218313 C.3        1 MOL1        -0.1834
      20    H11     18.743321   19.000525   22.036473 H          1 MOL1         0.0752
      21    H12     19.048636   20.361365   20.962644 H          1 MOL1         0.0752
      22    C8      19.195078   18.424870   19.997625 C.3        1 MOL1        -0.2849
      23    H13     18.142781   18.409023   19.685481 H          1 MOL1         0.0764
      24    H14     19.796121   18.769918   19.146158 H          1 MOL1         0.0764
      25    H15     19.494052   17.395218   20.233771 H          1 MOL1         0.0764
@<TRIPOS>BOND
    1     1     2    1
    2     1     3    2
    3     1     4    1
    4     4     5    1
    5     4     6    1
    6     4     7    1
    7     7     8    1
    8     7     9    1
    9     7    10    1
   10    10    11    1
   11    10    12    1
   12    10    13    1
   13    13    14    1
   14    13    15    1
   15    13    16    1
   16    16    17    1
   17    16    18    1
   18    16    19    1
   19    19    20    1
   20    19    21    1
   21    19    22    1
   22    22    23    1
   23    22    24    1
   24    22    25    1
@<TRIPOS>SUBSTRUCTURE
       1 MOL1            1 RESIDUE      1      MOL     
@<SCITEGIC>MOL_PROPERTY
VM2 Rank
SciTegic.value.IntegerValue
129

@<SCITEGIC>MOL_PROPERTY
Conf_Id
SciTegic.value.IntegerValue
571

@<SCITEGIC>MOL_PROPERTY
Probability
SciTegic.value.DoubleValue
0.00

@<SCITEGIC>MOL_PROPERTY
Sum Probability
SciTegic.value.DoubleValue
99.96

@<SCITEGIC>MOL_PROPERTY
Delta G
SciTegic.value.DoubleValue
5.351

@<SCITEGIC>MOL_PROPERTY
G
SciTegic.value.DoubleValue
-2.611

@<SCITEGIC>MOL_PROPERTY
E
SciTegic.value.DoubleValue
-27.723

@<SCITEGIC>MOL_PROPERTY
-TS
SciTegic.value.DoubleValue
25.112

@<SCITEGIC>MOL_PROPERTY
U+W
SciTegic.value.DoubleValue
-48.290

@<SCITEGIC>MOL_PROPERTY
U
SciTegic.value.DoubleValue
11.468

@<SCITEGIC>MOL_PROPERTY
W
SciTegic.value.DoubleValue
-59.758

@<SCITEGIC>MOL_PROPERTY
W(PB)
SciTegic.value.DoubleValue
-62.184

@<SCITEGIC>MOL_PROPERTY
W(SA)
SciTegic.value.DoubleValue
2.426

@<SCITEGIC>MOL_PROPERTY
Valence
SciTegic.value.DoubleValue
10.870

@<SCITEGIC>MOL_PROPERTY
Coulomb
SciTegic.value.DoubleValue
-0.266

@<SCITEGIC>MOL_PROPERTY
VdW
SciTegic.value.DoubleValue
0.864

@<SCITEGIC>MOL_PROPERTY
VdW6
SciTegic.value.DoubleValue
-10.146

@<SCITEGIC>MOL_PROPERTY
VdW12
SciTegic.value.DoubleValue
11.010

@<SCITEGIC>MOL_PROPERTY
Bond
SciTegic.value.DoubleValue
0.218

@<SCITEGIC>MOL_PROPERTY
Angle
SciTegic.value.DoubleValue
3.178

@<SCITEGIC>MOL_PROPERTY
Pdih
SciTegic.value.DoubleValue
7.473

@<SCITEGIC>MOL_PROPERTY
Idih
SciTegic.value.DoubleValue
0.001

@<SCITEGIC>MOL_PROPERTY
Tether
SciTegic.value.DoubleValue
0.000

@<TRIPOS>MOLECULE
guest-8_vm2.mol2 : vm2 ligand conformer 130
          25          24           1
SMALL
USER_CHARGES
 
@<TRIPOS>ATOM
       1    C1      20.019106   19.338049   26.963371 C.2        1 MOL1         0.6168
       2    O1      20.842147   18.922177   27.755379 O.co2      1 MOL1        -0.6703
       3    O2      18.831945   19.087501   27.034337 O.co2      1 MOL1        -0.6703
       4    C2      20.501295   20.248211   25.837290 C.3        1 MOL1        -0.1963
       5    H1      21.120412   21.030066   26.292134 H          1 MOL1         0.0750
       6    H2      19.633587   20.754365   25.399159 H          1 MOL1         0.0750
       7    C3      21.320520   19.517766   24.738460 C.3        1 MOL1        -0.1860
       8    H3      21.691236   20.254516   24.014210 H          1 MOL1         0.0752
       9    H4      22.212661   19.073684   25.200938 H          1 MOL1         0.0752
      10    C4      20.540465   18.403439   23.994226 C.3        1 MOL1        -0.1858
      11    H5      20.271461   17.615700   24.711060 H          1 MOL1         0.0752
      12    H6      21.210158   17.925357   23.267439 H          1 MOL1         0.0752
      13    C5      19.251502   18.872674   23.270086 C.3        1 MOL1        -0.1858
      14    H7      18.787762   18.006914   22.779892 H          1 MOL1         0.0752
      15    H8      18.520135   19.207595   24.017597 H          1 MOL1         0.0752
      16    C6      19.454563   20.002790   22.226668 C.3        1 MOL1        -0.1858
      17    H9      19.783043   20.915624   22.740471 H          1 MOL1         0.0752
      18    H10     18.480998   20.246865   21.780639 H          1 MOL1         0.0752
      19    C7      20.456293   19.677567   21.091315 C.3        1 MOL1        -0.1834
      20    H11     20.543961   20.557193   20.439061 H          1 MOL1         0.0752
      21    H12     21.457651   19.506931   21.508151 H          1 MOL1         0.0752
      22    C8      20.035162   18.463825   20.234868 C.3        1 MOL1        -0.2849
      23    H13     19.027714   18.604760   19.822425 H          1 MOL1         0.0764
      24    H14     20.728841   18.326548   19.395418 H          1 MOL1         0.0764
      25    H15     20.039738   17.538925   20.825153 H          1 MOL1         0.0764
@<TRIPOS>BOND
    1     1     2    1
    2     1     3    2
    3     1     4    1
    4     4     5    1
    5     4     6    1
    6     4     7    1
    7     7     8    1
    8     7     9    1
    9     7    10    1
   10    10    11    1
   11    10    12    1
   12    10    13    1
   13    13    14    1
   14    13    15    1
   15    13    16    1
   16    16    17    1
   17    16    18    1
   18    16    19    1
   19    19    20    1
   20    19    21    1
   21    19    22    1
   22    22    23    1
   23    22    24    1
   24    22    25    1
@<TRIPOS>SUBSTRUCTURE
       1 MOL1            1 RESIDUE      1      MOL     
@<SCITEGIC>MOL_PROPERTY
VM2 Rank
SciTegic.value.IntegerValue
130

@<SCITEGIC>MOL_PROPERTY
Conf_Id
SciTegic.value.IntegerValue
565

@<SCITEGIC>MOL_PROPERTY
Probability
SciTegic.value.DoubleValue
0.00

@<SCITEGIC>MOL_PROPERTY
Sum Probability
SciTegic.value.DoubleValue
99.96

@<SCITEGIC>MOL_PROPERTY
Delta G
SciTegic.value.DoubleValue
5.391

@<SCITEGIC>MOL_PROPERTY
G
SciTegic.value.DoubleValue
-2.571

@<SCITEGIC>MOL_PROPERTY
E
SciTegic.value.DoubleValue
-28.403

@<SCITEGIC>MOL_PROPERTY
-TS
SciTegic.value.DoubleValue
25.832

@<SCITEGIC>MOL_PROPERTY
U+W
SciTegic.value.DoubleValue
-48.971

@<SCITEGIC>MOL_PROPERTY
U
SciTegic.value.DoubleValue
11.079

@<SCITEGIC>MOL_PROPERTY
W
SciTegic.value.DoubleValue
-60.050

@<SCITEGIC>MOL_PROPERTY
W(PB)
SciTegic.value.DoubleValue
-62.389

@<SCITEGIC>MOL_PROPERTY
W(SA)
SciTegic.value.DoubleValue
2.339

@<SCITEGIC>MOL_PROPERTY
Valence
SciTegic.value.DoubleValue
9.623

@<SCITEGIC>MOL_PROPERTY
Coulomb
SciTegic.value.DoubleValue
0.950

@<SCITEGIC>MOL_PROPERTY
VdW
SciTegic.value.DoubleValue
0.506

@<SCITEGIC>MOL_PROPERTY
VdW6
SciTegic.value.DoubleValue
-12.338

@<SCITEGIC>MOL_PROPERTY
VdW12
SciTegic.value.DoubleValue
12.844

@<SCITEGIC>MOL_PROPERTY
Bond
SciTegic.value.DoubleValue
0.307

@<SCITEGIC>MOL_PROPERTY
Angle
SciTegic.value.DoubleValue
3.790

@<SCITEGIC>MOL_PROPERTY
Pdih
SciTegic.value.DoubleValue
5.524

@<SCITEGIC>MOL_PROPERTY
Idih
SciTegic.value.DoubleValue
0.001

@<SCITEGIC>MOL_PROPERTY
Tether
SciTegic.value.DoubleValue
0.000

@<TRIPOS>MOLECULE
guest-8_vm2.mol2 : vm2 ligand conformer 131
          25          24           1
SMALL
USER_CHARGES
 
@<TRIPOS>ATOM
       1    C1      19.694821   19.019235   26.842664 C.2        1 MOL1         0.6168
       2    O1      20.225047   19.134060   27.930361 O.co2      1 MOL1        -0.6703
       3    O2      18.559726   19.383767   26.606639 O.co2      1 MOL1        -0.6703
       4    C2      20.492045   18.359833   25.720492 C.3        1 MOL1        -0.1963
       5    H1      19.792353   18.047699   24.938847 H          1 MOL1         0.0750
       6    H2      20.932122   17.443844   26.131522 H          1 MOL1         0.0750
       7    C3      21.620635   19.255758   25.138317 C.3        1 MOL1        -0.1860
       8    H3      22.252140   19.590863   25.972885 H          1 MOL1         0.0752
       9    H4      22.273144   18.657539   24.488191 H          1 MOL1         0.0752
      10    C4      21.110975   20.501229   24.366946 C.3        1 MOL1        -0.1858
      11    H5      21.815224   21.324940   24.546662 H          1 MOL1         0.0752
      12    H6      20.148545   20.839552   24.774426 H          1 MOL1         0.0752
      13    C5      20.998252   20.311913   22.833306 C.3        1 MOL1        -0.1858
      14    H7      20.707049   21.273680   22.389437 H          1 MOL1         0.0752
      15    H8      21.987177   20.069434   22.420968 H          1 MOL1         0.0752
      16    C6      19.982315   19.231883   22.399543 C.3        1 MOL1        -0.1858
      17    H9      19.017098   19.415749   22.891251 H          1 MOL1         0.0752
      18    H10     20.332215   18.244396   22.726529 H          1 MOL1         0.0752
      19    C7      19.787050   19.211994   20.868818 C.3        1 MOL1        -0.1834
      20    H11     19.430092   20.193560   20.527514 H          1 MOL1         0.0752
      21    H12     20.752240   19.033504   20.374876 H          1 MOL1         0.0752
      22    C8      18.782134   18.124328   20.438913 C.3        1 MOL1        -0.2849
      23    H13     19.130088   17.127311   20.739319 H          1 MOL1         0.0764
      24    H14     17.798589   18.296081   20.895555 H          1 MOL1         0.0764
      25    H15     18.654469   18.124559   19.348624 H          1 MOL1         0.0764
@<TRIPOS>BOND
    1     1     2    1
    2     1     3    2
    3     1     4    1
    4     4     5    1
    5     4     6    1
    6     4     7    1
    7     7     8    1
    8     7     9    1
    9     7    10    1
   10    10    11    1
   11    10    12    1
   12    10    13    1
   13    13    14    1
   14    13    15    1
   15    13    16    1
   16    16    17    1
   17    16    18    1
   18    16    19    1
   19    19    20    1
   20    19    21    1
   21    19    22    1
   22    22    23    1
   23    22    24    1
   24    22    25    1
@<TRIPOS>SUBSTRUCTURE
       1 MOL1            1 RESIDUE      1      MOL     
@<SCITEGIC>MOL_PROPERTY
VM2 Rank
SciTegic.value.IntegerValue
131

@<SCITEGIC>MOL_PROPERTY
Conf_Id
SciTegic.value.IntegerValue
841

@<SCITEGIC>MOL_PROPERTY
Probability
SciTegic.value.DoubleValue
0.00

@<SCITEGIC>MOL_PROPERTY
Sum Probability
SciTegic.value.DoubleValue
99.96

@<SCITEGIC>MOL_PROPERTY
Delta G
SciTegic.value.DoubleValue
5.393

@<SCITEGIC>MOL_PROPERTY
G
SciTegic.value.DoubleValue
-2.569

@<SCITEGIC>MOL_PROPERTY
E
SciTegic.value.DoubleValue
-27.716

@<SCITEGIC>MOL_PROPERTY
-TS
SciTegic.value.DoubleValue
25.147

@<SCITEGIC>MOL_PROPERTY
U+W
SciTegic.value.DoubleValue
-48.283

@<SCITEGIC>MOL_PROPERTY
U
SciTegic.value.DoubleValue
11.916

@<SCITEGIC>MOL_PROPERTY
W
SciTegic.value.DoubleValue
-60.200

@<SCITEGIC>MOL_PROPERTY
W(PB)
SciTegic.value.DoubleValue
-62.622

@<SCITEGIC>MOL_PROPERTY
W(SA)
SciTegic.value.DoubleValue
2.423

@<SCITEGIC>MOL_PROPERTY
Valence
SciTegic.value.DoubleValue
10.867

@<SCITEGIC>MOL_PROPERTY
Coulomb
SciTegic.value.DoubleValue
0.268

@<SCITEGIC>MOL_PROPERTY
VdW
SciTegic.value.DoubleValue
0.781

@<SCITEGIC>MOL_PROPERTY
VdW6
SciTegic.value.DoubleValue
-10.299

@<SCITEGIC>MOL_PROPERTY
VdW12
SciTegic.value.DoubleValue
11.079

@<SCITEGIC>MOL_PROPERTY
Bond
SciTegic.value.DoubleValue
0.238

@<SCITEGIC>MOL_PROPERTY
Angle
SciTegic.value.DoubleValue
3.230

@<SCITEGIC>MOL_PROPERTY
Pdih
SciTegic.value.DoubleValue
7.398

@<SCITEGIC>MOL_PROPERTY
Idih
SciTegic.value.DoubleValue
0.001

@<SCITEGIC>MOL_PROPERTY
Tether
SciTegic.value.DoubleValue
0.000

@<TRIPOS>MOLECULE
guest-8_vm2.mol2 : vm2 ligand conformer 132
          25          24           1
SMALL
USER_CHARGES
 
@<TRIPOS>ATOM
       1    C1      20.484509   19.360632   27.097746 C.2        1 MOL1         0.6168
       2    O1      21.609525   19.804401   26.977802 O.co2      1 MOL1        -0.6703
       3    O2      19.644971   19.844977   27.831054 O.co2      1 MOL1        -0.6703
       4    C2      20.109404   18.114865   26.300008 C.3        1 MOL1        -0.1963
       5    H1      19.602933   17.426192   26.986409 H          1 MOL1         0.0750
       6    H2      21.030835   17.617584   25.973624 H          1 MOL1         0.0750
       7    C3      19.193468   18.398589   25.081157 C.3        1 MOL1        -0.1860
       8    H3      18.865482   17.442239   24.651846 H          1 MOL1         0.0752
       9    H4      18.287772   18.920657   25.419887 H          1 MOL1         0.0752
      10    C4      19.900081   19.230958   23.987679 C.3        1 MOL1        -0.1858
      11    H5      20.815045   18.714755   23.673904 H          1 MOL1         0.0752
      12    H6      20.213606   20.197310   24.405929 H          1 MOL1         0.0752
      13    C5      18.976310   19.477186   22.771547 C.3        1 MOL1        -0.1858
      14    H7      18.609888   18.522793   22.369531 H          1 MOL1         0.0752
      15    H8      18.089352   20.022831   23.121520 H          1 MOL1         0.0752
      16    C6      19.649301   20.303985   21.646424 C.3        1 MOL1        -0.1858
      17    H9      20.407972   20.976473   22.069591 H          1 MOL1         0.0752
      18    H10     18.887063   20.957359   21.200396 H          1 MOL1         0.0752
      19    C7      20.265183   19.459505   20.503423 C.3        1 MOL1        -0.1834
      20    H11     19.480233   18.855198   20.028145 H          1 MOL1         0.0752
      21    H12     20.638765   20.142388   19.728009 H          1 MOL1         0.0752
      22    C8      21.420248   18.538903   20.949160 C.3        1 MOL1        -0.2849
      23    H13     21.056469   17.736325   21.602721 H          1 MOL1         0.0764
      24    H14     21.893039   18.066989   20.078237 H          1 MOL1         0.0764
      25    H15     22.190782   19.105816   21.487581 H          1 MOL1         0.0764
@<TRIPOS>BOND
    1     1     2    1
    2     1     3    2
    3     1     4    1
    4     4     5    1
    5     4     6    1
    6     4     7    1
    7     7     8    1
    8     7     9    1
    9     7    10    1
   10    10    11    1
   11    10    12    1
   12    10    13    1
   13    13    14    1
   14    13    15    1
   15    13    16    1
   16    16    17    1
   17    16    18    1
   18    16    19    1
   19    19    20    1
   20    19    21    1
   21    19    22    1
   22    22    23    1
   23    22    24    1
   24    22    25    1
@<TRIPOS>SUBSTRUCTURE
       1 MOL1            1 RESIDUE      1      MOL     
@<SCITEGIC>MOL_PROPERTY
VM2 Rank
SciTegic.value.IntegerValue
132

@<SCITEGIC>MOL_PROPERTY
Conf_Id
SciTegic.value.IntegerValue
702

@<SCITEGIC>MOL_PROPERTY
Probability
SciTegic.value.DoubleValue
0.00

@<SCITEGIC>MOL_PROPERTY
Sum Probability
SciTegic.value.DoubleValue
99.97

@<SCITEGIC>MOL_PROPERTY
Delta G
SciTegic.value.DoubleValue
5.409

@<SCITEGIC>MOL_PROPERTY
G
SciTegic.value.DoubleValue
-2.553

@<SCITEGIC>MOL_PROPERTY
E
SciTegic.value.DoubleValue
-27.600

@<SCITEGIC>MOL_PROPERTY
-TS
SciTegic.value.DoubleValue
25.047

@<SCITEGIC>MOL_PROPERTY
U+W
SciTegic.value.DoubleValue
-48.168

@<SCITEGIC>MOL_PROPERTY
U
SciTegic.value.DoubleValue
11.935

@<SCITEGIC>MOL_PROPERTY
W
SciTegic.value.DoubleValue
-60.103

@<SCITEGIC>MOL_PROPERTY
W(PB)
SciTegic.value.DoubleValue
-62.535

@<SCITEGIC>MOL_PROPERTY
W(SA)
SciTegic.value.DoubleValue
2.432

@<SCITEGIC>MOL_PROPERTY
Valence
SciTegic.value.DoubleValue
10.764

@<SCITEGIC>MOL_PROPERTY
Coulomb
SciTegic.value.DoubleValue
0.351

@<SCITEGIC>MOL_PROPERTY
VdW
SciTegic.value.DoubleValue
0.820

@<SCITEGIC>MOL_PROPERTY
VdW6
SciTegic.value.DoubleValue
-10.096

@<SCITEGIC>MOL_PROPERTY
VdW12
SciTegic.value.DoubleValue
10.916

@<SCITEGIC>MOL_PROPERTY
Bond
SciTegic.value.DoubleValue
0.214

@<SCITEGIC>MOL_PROPERTY
Angle
SciTegic.value.DoubleValue
3.144

@<SCITEGIC>MOL_PROPERTY
Pdih
SciTegic.value.DoubleValue
7.405

@<SCITEGIC>MOL_PROPERTY
Idih
SciTegic.value.DoubleValue
0.001

@<SCITEGIC>MOL_PROPERTY
Tether
SciTegic.value.DoubleValue
0.000

@<TRIPOS>MOLECULE
guest-8_vm2.mol2 : vm2 ligand conformer 133
          25          24           1
SMALL
USER_CHARGES
 
@<TRIPOS>ATOM
       1    C1      20.411304   18.778262   26.846199 C.2        1 MOL1         0.6168
       2    O1      21.581750   18.916399   27.143045 O.co2      1 MOL1        -0.6703
       3    O2      19.857616   17.698669   26.776431 O.co2      1 MOL1        -0.6703
       4    C2      19.587367   20.032736   26.569111 C.3        1 MOL1        -0.1963
       5    H1      19.806077   20.751427   27.367592 H          1 MOL1         0.0750
       6    H2      18.523756   19.778691   26.652852 H          1 MOL1         0.0750
       7    C3      19.875434   20.684807   25.191876 C.3        1 MOL1        -0.1860
       8    H3      19.348384   21.646820   25.135312 H          1 MOL1         0.0752
       9    H4      20.948744   20.906755   25.112032 H          1 MOL1         0.0752
      10    C4      19.437224   19.792698   24.008722 C.3        1 MOL1        -0.1858
      11    H5      18.366293   19.565834   24.099785 H          1 MOL1         0.0752
      12    H6      19.965281   18.832978   24.059517 H          1 MOL1         0.0752
      13    C5      19.702980   20.478492   22.647853 C.3        1 MOL1        -0.1858
      14    H7      19.129491   21.415035   22.618767 H          1 MOL1         0.0752
      15    H8      20.760421   20.764115   22.563947 H          1 MOL1         0.0752
      16    C6      19.289217   19.611013   21.431855 C.3        1 MOL1        -0.1858
      17    H9      18.889392   20.278586   20.656402 H          1 MOL1         0.0752
      18    H10     18.461895   18.941876   21.705083 H          1 MOL1         0.0752
      19    C7      20.443484   18.797282   20.795862 C.3        1 MOL1        -0.1834
      20    H11     20.059249   18.287926   19.901397 H          1 MOL1         0.0752
      21    H12     21.227725   19.482643   20.445916 H          1 MOL1         0.0752
      22    C8      21.066623   17.743642   21.735046 C.3        1 MOL1        -0.2849
      23    H13     20.295868   17.083516   22.153654 H          1 MOL1         0.0764
      24    H14     21.786752   17.120562   21.189255 H          1 MOL1         0.0764
      25    H15     21.604331   18.220895   22.563886 H          1 MOL1         0.0764
@<TRIPOS>BOND
    1     1     2    1
    2     1     3    2
    3     1     4    1
    4     4     5    1
    5     4     6    1
    6     4     7    1
    7     7     8    1
    8     7     9    1
    9     7    10    1
   10    10    11    1
   11    10    12    1
   12    10    13    1
   13    13    14    1
   14    13    15    1
   15    13    16    1
   16    16    17    1
   17    16    18    1
   18    16    19    1
   19    19    20    1
   20    19    21    1
   21    19    22    1
   22    22    23    1
   23    22    24    1
   24    22    25    1
@<TRIPOS>SUBSTRUCTURE
       1 MOL1            1 RESIDUE      1      MOL     
@<SCITEGIC>MOL_PROPERTY
VM2 Rank
SciTegic.value.IntegerValue
133

@<SCITEGIC>MOL_PROPERTY
Conf_Id
SciTegic.value.IntegerValue
281

@<SCITEGIC>MOL_PROPERTY
Probability
SciTegic.value.DoubleValue
0.00

@<SCITEGIC>MOL_PROPERTY
Sum Probability
SciTegic.value.DoubleValue
99.97

@<SCITEGIC>MOL_PROPERTY
Delta G
SciTegic.value.DoubleValue
5.486

@<SCITEGIC>MOL_PROPERTY
G
SciTegic.value.DoubleValue
-2.476

@<SCITEGIC>MOL_PROPERTY
E
SciTegic.value.DoubleValue
-27.537

@<SCITEGIC>MOL_PROPERTY
-TS
SciTegic.value.DoubleValue
25.060

@<SCITEGIC>MOL_PROPERTY
U+W
SciTegic.value.DoubleValue
-48.104

@<SCITEGIC>MOL_PROPERTY
U
SciTegic.value.DoubleValue
12.640

@<SCITEGIC>MOL_PROPERTY
W
SciTegic.value.DoubleValue
-60.745

@<SCITEGIC>MOL_PROPERTY
W(PB)
SciTegic.value.DoubleValue
-63.148

@<SCITEGIC>MOL_PROPERTY
W(SA)
SciTegic.value.DoubleValue
2.403

@<SCITEGIC>MOL_PROPERTY
Valence
SciTegic.value.DoubleValue
10.756

@<SCITEGIC>MOL_PROPERTY
Coulomb
SciTegic.value.DoubleValue
1.146

@<SCITEGIC>MOL_PROPERTY
VdW
SciTegic.value.DoubleValue
0.738

@<SCITEGIC>MOL_PROPERTY
VdW6
SciTegic.value.DoubleValue
-10.212

@<SCITEGIC>MOL_PROPERTY
VdW12
SciTegic.value.DoubleValue
10.950

@<SCITEGIC>MOL_PROPERTY
Bond
SciTegic.value.DoubleValue
0.214

@<SCITEGIC>MOL_PROPERTY
Angle
SciTegic.value.DoubleValue
3.128

@<SCITEGIC>MOL_PROPERTY
Pdih
SciTegic.value.DoubleValue
7.413

@<SCITEGIC>MOL_PROPERTY
Idih
SciTegic.value.DoubleValue
0.001

@<SCITEGIC>MOL_PROPERTY
Tether
SciTegic.value.DoubleValue
0.000

@<TRIPOS>MOLECULE
guest-8_vm2.mol2 : vm2 ligand conformer 134
          25          24           1
SMALL
USER_CHARGES
 
@<TRIPOS>ATOM
       1    C1      20.475196   19.741008   26.820424 C.2        1 MOL1         0.6168
       2    O1      21.570207   20.190259   26.544636 O.co2      1 MOL1        -0.6703
       3    O2      19.599054   20.387490   27.360464 O.co2      1 MOL1        -0.6703
       4    C2      20.190134   18.278026   26.492216 C.3        1 MOL1        -0.1963
       5    H1      19.730029   17.826726   27.379090 H          1 MOL1         0.0750
       6    H2      21.145050   17.762754   26.332619 H          1 MOL1         0.0750
       7    C3      19.261519   18.075655   25.266738 C.3        1 MOL1        -0.1860
       8    H3      19.003454   17.010951   25.187734 H          1 MOL1         0.0752
       9    H4      18.319982   18.618470   25.429468 H          1 MOL1         0.0752
      10    C4      19.912571   18.542822   23.945414 C.3        1 MOL1        -0.1858
      11    H5      20.858183   18.005646   23.790933 H          1 MOL1         0.0752
      12    H6      20.154682   19.610727   24.021878 H          1 MOL1         0.0752
      13    C5      18.980707   18.311214   22.735267 C.3        1 MOL1        -0.1858
      14    H7      18.644258   17.265491   22.738895 H          1 MOL1         0.0752
      15    H8      18.077266   18.925929   22.848057 H          1 MOL1         0.0752
      16    C6      19.635165   18.604676   21.361707 C.3        1 MOL1        -0.1858
      17    H9      18.900596   18.350333   20.585458 H          1 MOL1         0.0752
      18    H10     20.486932   17.930376   21.198379 H          1 MOL1         0.0752
      19    C7      20.068546   20.077001   21.150326 C.3        1 MOL1        -0.1834
      20    H11     19.897122   20.345577   20.098779 H          1 MOL1         0.0752
      21    H12     19.434840   20.749747   21.744551 H          1 MOL1         0.0752
      22    C8      21.559901   20.325849   21.468808 C.3        1 MOL1        -0.2849
      23    H13     22.203917   19.704991   20.832591 H          1 MOL1         0.0764
      24    H14     21.820931   21.376321   21.286795 H          1 MOL1         0.0764
      25    H15     21.798026   20.099223   22.514401 H          1 MOL1         0.0764
@<TRIPOS>BOND
    1     1     2    1
    2     1     3    2
    3     1     4    1
    4     4     5    1
    5     4     6    1
    6     4     7    1
    7     7     8    1
    8     7     9    1
    9     7    10    1
   10    10    11    1
   11    10    12    1
   12    10    13    1
   13    13    14    1
   14    13    15    1
   15    13    16    1
   16    16    17    1
   17    16    18    1
   18    16    19    1
   19    19    20    1
   20    19    21    1
   21    19    22    1
   22    22    23    1
   23    22    24    1
   24    22    25    1
@<TRIPOS>SUBSTRUCTURE
       1 MOL1            1 RESIDUE      1      MOL     
@<SCITEGIC>MOL_PROPERTY
VM2 Rank
SciTegic.value.IntegerValue
134

@<SCITEGIC>MOL_PROPERTY
Conf_Id
SciTegic.value.IntegerValue
1099

@<SCITEGIC>MOL_PROPERTY
Probability
SciTegic.value.DoubleValue
0.00

@<SCITEGIC>MOL_PROPERTY
Sum Probability
SciTegic.value.DoubleValue
99.97

@<SCITEGIC>MOL_PROPERTY
Delta G
SciTegic.value.DoubleValue
5.489

@<SCITEGIC>MOL_PROPERTY
G
SciTegic.value.DoubleValue
-2.473

@<SCITEGIC>MOL_PROPERTY
E
SciTegic.value.DoubleValue
-27.532

@<SCITEGIC>MOL_PROPERTY
-TS
SciTegic.value.DoubleValue
25.059

@<SCITEGIC>MOL_PROPERTY
U+W
SciTegic.value.DoubleValue
-48.100

@<SCITEGIC>MOL_PROPERTY
U
SciTegic.value.DoubleValue
12.669

@<SCITEGIC>MOL_PROPERTY
W
SciTegic.value.DoubleValue
-60.769

@<SCITEGIC>MOL_PROPERTY
W(PB)
SciTegic.value.DoubleValue
-63.191

@<SCITEGIC>MOL_PROPERTY
W(SA)
SciTegic.value.DoubleValue
2.422

@<SCITEGIC>MOL_PROPERTY
Valence
SciTegic.value.DoubleValue
10.772

@<SCITEGIC>MOL_PROPERTY
Coulomb
SciTegic.value.DoubleValue
1.133

@<SCITEGIC>MOL_PROPERTY
VdW
SciTegic.value.DoubleValue
0.765

@<SCITEGIC>MOL_PROPERTY
VdW6
SciTegic.value.DoubleValue
-10.207

@<SCITEGIC>MOL_PROPERTY
VdW12
SciTegic.value.DoubleValue
10.971

@<SCITEGIC>MOL_PROPERTY
Bond
SciTegic.value.DoubleValue
0.213

@<SCITEGIC>MOL_PROPERTY
Angle
SciTegic.value.DoubleValue
3.170

@<SCITEGIC>MOL_PROPERTY
Pdih
SciTegic.value.DoubleValue
7.388

@<SCITEGIC>MOL_PROPERTY
Idih
SciTegic.value.DoubleValue
0.001

@<SCITEGIC>MOL_PROPERTY
Tether
SciTegic.value.DoubleValue
0.000

@<TRIPOS>MOLECULE
guest-8_vm2.mol2 : vm2 ligand conformer 135
          25          24           1
SMALL
USER_CHARGES
 
@<TRIPOS>ATOM
       1    C1      20.661807   19.027603   26.686495 C.2        1 MOL1         0.6168
       2    O1      21.855810   19.163231   26.504775 O.co2      1 MOL1        -0.6703
       3    O2      20.156083   18.003018   27.100750 O.co2      1 MOL1        -0.6703
       4    C2      19.751485   20.218821   26.400709 C.3        1 MOL1        -0.1963
       5    H1      20.217375   21.102647   26.852047 H          1 MOL1         0.0750
       6    H2      18.796940   20.063311   26.917848 H          1 MOL1         0.0750
       7    C3      19.508852   20.475088   24.890909 C.3        1 MOL1        -0.1860
       8    H3      18.974061   21.427148   24.773415 H          1 MOL1         0.0752
       9    H4      20.476216   20.598474   24.388998 H          1 MOL1         0.0752
      10    C4      18.685524   19.346647   24.223078 C.3        1 MOL1        -0.1858
      11    H5      17.710581   19.290719   24.726249 H          1 MOL1         0.0752
      12    H6      19.166014   18.371395   24.381959 H          1 MOL1         0.0752
      13    C5      18.447615   19.577496   22.709252 C.3        1 MOL1        -0.1858
      14    H7      17.438256   19.220588   22.463046 H          1 MOL1         0.0752
      15    H8      18.447475   20.652402   22.482570 H          1 MOL1         0.0752
      16    C6      19.443140   18.838335   21.779886 C.3        1 MOL1        -0.1858
      17    H9      19.139692   19.015523   20.739058 H          1 MOL1         0.0752
      18    H10     19.359863   17.755409   21.944764 H          1 MOL1         0.0752
      19    C7      20.915730   19.270055   21.953520 C.3        1 MOL1        -0.1834
      20    H11     20.994317   20.363100   21.875976 H          1 MOL1         0.0752
      21    H12     21.271475   18.988312   22.953744 H          1 MOL1         0.0752
      22    C8      21.826954   18.613706   20.896627 C.3        1 MOL1        -0.2849
      23    H13     21.523517   18.902074   19.881719 H          1 MOL1         0.0764
      24    H14     22.870094   18.924310   21.039419 H          1 MOL1         0.0764
      25    H15     21.786297   17.518987   20.969138 H          1 MOL1         0.0764
@<TRIPOS>BOND
    1     1     2    1
    2     1     3    2
    3     1     4    1
    4     4     5    1
    5     4     6    1
    6     4     7    1
    7     7     8    1
    8     7     9    1
    9     7    10    1
   10    10    11    1
   11    10    12    1
   12    10    13    1
   13    13    14    1
   14    13    15    1
   15    13    16    1
   16    16    17    1
   17    16    18    1
   18    16    19    1
   19    19    20    1
   20    19    21    1
   21    19    22    1
   22    22    23    1
   23    22    24    1
   24    22    25    1
@<TRIPOS>SUBSTRUCTURE
       1 MOL1            1 RESIDUE      1      MOL     
@<SCITEGIC>MOL_PROPERTY
VM2 Rank
SciTegic.value.IntegerValue
135

@<SCITEGIC>MOL_PROPERTY
Conf_Id
SciTegic.value.IntegerValue
743

@<SCITEGIC>MOL_PROPERTY
Probability
SciTegic.value.DoubleValue
0.00

@<SCITEGIC>MOL_PROPERTY
Sum Probability
SciTegic.value.DoubleValue
99.97

@<SCITEGIC>MOL_PROPERTY
Delta G
SciTegic.value.DoubleValue
5.492

@<SCITEGIC>MOL_PROPERTY
G
SciTegic.value.DoubleValue
-2.471

@<SCITEGIC>MOL_PROPERTY
E
SciTegic.value.DoubleValue
-27.597

@<SCITEGIC>MOL_PROPERTY
-TS
SciTegic.value.DoubleValue
25.126

@<SCITEGIC>MOL_PROPERTY
U+W
SciTegic.value.DoubleValue
-48.165

@<SCITEGIC>MOL_PROPERTY
U
SciTegic.value.DoubleValue
12.689

@<SCITEGIC>MOL_PROPERTY
W
SciTegic.value.DoubleValue
-60.854

@<SCITEGIC>MOL_PROPERTY
W(PB)
SciTegic.value.DoubleValue
-63.278

@<SCITEGIC>MOL_PROPERTY
W(SA)
SciTegic.value.DoubleValue
2.424

@<SCITEGIC>MOL_PROPERTY
Valence
SciTegic.value.DoubleValue
10.791

@<SCITEGIC>MOL_PROPERTY
Coulomb
SciTegic.value.DoubleValue
1.261

@<SCITEGIC>MOL_PROPERTY
VdW
SciTegic.value.DoubleValue
0.637

@<SCITEGIC>MOL_PROPERTY
VdW6
SciTegic.value.DoubleValue
-10.463

@<SCITEGIC>MOL_PROPERTY
VdW12
SciTegic.value.DoubleValue
11.099

@<SCITEGIC>MOL_PROPERTY
Bond
SciTegic.value.DoubleValue
0.216

@<SCITEGIC>MOL_PROPERTY
Angle
SciTegic.value.DoubleValue
3.125

@<SCITEGIC>MOL_PROPERTY
Pdih
SciTegic.value.DoubleValue
7.449

@<SCITEGIC>MOL_PROPERTY
Idih
SciTegic.value.DoubleValue
0.001

@<SCITEGIC>MOL_PROPERTY
Tether
SciTegic.value.DoubleValue
0.000

@<TRIPOS>MOLECULE
guest-8_vm2.mol2 : vm2 ligand conformer 136
          25          24           1
SMALL
USER_CHARGES
 
@<TRIPOS>ATOM
       1    C1      19.773874   19.696126   26.828468 C.2        1 MOL1         0.6168
       2    O1      20.572615   20.449881   27.349112 O.co2      1 MOL1        -0.6703
       3    O2      18.624456   20.001643   26.578606 O.co2      1 MOL1        -0.6703
       4    C2      20.235550   18.280937   26.491727 C.3        1 MOL1        -0.1963
       5    H1      19.350726   17.647840   26.353482 H          1 MOL1         0.0750
       6    H2      20.769780   17.893382   27.367120 H          1 MOL1         0.0750
       7    C3      21.153886   18.196736   25.244873 C.3        1 MOL1        -0.1860
       8    H3      22.022051   18.855381   25.386638 H          1 MOL1         0.0752
       9    H4      21.543670   17.173494   25.158400 H          1 MOL1         0.0752
      10    C4      20.418312   18.575126   23.939592 C.3        1 MOL1        -0.1858
      11    H5      20.043918   19.603585   24.023172 H          1 MOL1         0.0752
      12    H6      19.545554   17.921596   23.806192 H          1 MOL1         0.0752
      13    C5      21.343922   18.462343   22.707930 C.3        1 MOL1        -0.1858
      14    H7      22.164054   19.187304   22.800764 H          1 MOL1         0.0752
      15    H8      21.810837   17.468005   22.702243 H          1 MOL1         0.0752
      16    C6      20.625900   18.668035   21.350270 C.3        1 MOL1        -0.1858
      17    H9      19.863386   17.890523   21.205655 H          1 MOL1         0.0752
      18    H10     21.368765   18.508145   20.556903 H          1 MOL1         0.0752
      19    C7      20.003812   20.072877   21.151099 C.3        1 MOL1        -0.1834
      20    H11     20.560264   20.821728   21.731494 H          1 MOL1         0.0752
      21    H12     20.115298   20.359511   20.096261 H          1 MOL1         0.0752
      22    C8      18.500672   20.130296   21.504322 C.3        1 MOL1        -0.2849
      23    H13     17.926420   19.431538   20.882259 H          1 MOL1         0.0764
      24    H14     18.317557   19.876768   22.554807 H          1 MOL1         0.0764
      25    H15     18.103884   21.138710   21.329913 H          1 MOL1         0.0764
@<TRIPOS>BOND
    1     1     2    1
    2     1     3    2
    3     1     4    1
    4     4     5    1
    5     4     6    1
    6     4     7    1
    7     7     8    1
    8     7     9    1
    9     7    10    1
   10    10    11    1
   11    10    12    1
   12    10    13    1
   13    13    14    1
   14    13    15    1
   15    13    16    1
   16    16    17    1
   17    16    18    1
   18    16    19    1
   19    19    20    1
   20    19    21    1
   21    19    22    1
   22    22    23    1
   23    22    24    1
   24    22    25    1
@<TRIPOS>SUBSTRUCTURE
       1 MOL1            1 RESIDUE      1      MOL     
@<SCITEGIC>MOL_PROPERTY
VM2 Rank
SciTegic.value.IntegerValue
136

@<SCITEGIC>MOL_PROPERTY
Conf_Id
SciTegic.value.IntegerValue
285

@<SCITEGIC>MOL_PROPERTY
Probability
SciTegic.value.DoubleValue
0.00

@<SCITEGIC>MOL_PROPERTY
Sum Probability
SciTegic.value.DoubleValue
99.97

@<SCITEGIC>MOL_PROPERTY
Delta G
SciTegic.value.DoubleValue
5.492

@<SCITEGIC>MOL_PROPERTY
G
SciTegic.value.DoubleValue
-2.470

@<SCITEGIC>MOL_PROPERTY
E
SciTegic.value.DoubleValue
-27.529

@<SCITEGIC>MOL_PROPERTY
-TS
SciTegic.value.DoubleValue
25.059

@<SCITEGIC>MOL_PROPERTY
U+W
SciTegic.value.DoubleValue
-48.096

@<SCITEGIC>MOL_PROPERTY
U
SciTegic.value.DoubleValue
12.669

@<SCITEGIC>MOL_PROPERTY
W
SciTegic.value.DoubleValue
-60.766

@<SCITEGIC>MOL_PROPERTY
W(PB)
SciTegic.value.DoubleValue
-63.199

@<SCITEGIC>MOL_PROPERTY
W(SA)
SciTegic.value.DoubleValue
2.434

@<SCITEGIC>MOL_PROPERTY
Valence
SciTegic.value.DoubleValue
10.771

@<SCITEGIC>MOL_PROPERTY
Coulomb
SciTegic.value.DoubleValue
1.133

@<SCITEGIC>MOL_PROPERTY
VdW
SciTegic.value.DoubleValue
0.765

@<SCITEGIC>MOL_PROPERTY
VdW6
SciTegic.value.DoubleValue
-10.207

@<SCITEGIC>MOL_PROPERTY
VdW12
SciTegic.value.DoubleValue
10.972

@<SCITEGIC>MOL_PROPERTY
Bond
SciTegic.value.DoubleValue
0.213

@<SCITEGIC>MOL_PROPERTY
Angle
SciTegic.value.DoubleValue
3.170

@<SCITEGIC>MOL_PROPERTY
Pdih
SciTegic.value.DoubleValue
7.388

@<SCITEGIC>MOL_PROPERTY
Idih
SciTegic.value.DoubleValue
0.001

@<SCITEGIC>MOL_PROPERTY
Tether
SciTegic.value.DoubleValue
0.000

@<TRIPOS>MOLECULE
guest-8_vm2.mol2 : vm2 ligand conformer 137
          25          24           1
SMALL
USER_CHARGES
 
@<TRIPOS>ATOM
       1    C1      19.958930   18.749975   26.851441 C.2        1 MOL1         0.6168
       2    O1      20.640679   17.747425   26.767356 O.co2      1 MOL1        -0.6703
       3    O2      18.787550   18.742073   27.175402 O.co2      1 MOL1        -0.6703
       4    C2      20.614052   20.096682   26.557237 C.3        1 MOL1        -0.1963
       5    H1      21.702631   19.976816   26.615945 H          1 MOL1         0.0750
       6    H2      20.326332   20.783746   27.361652 H          1 MOL1         0.0750
       7    C3      20.215421   20.706026   25.188022 C.3        1 MOL1        -0.1860
       8    H3      19.121291   20.792723   25.133325 H          1 MOL1         0.0752
       9    H4      20.617353   21.726016   25.120772 H          1 MOL1         0.0752
      10    C4      20.733687   19.873712   23.993705 C.3        1 MOL1        -0.1858
      11    H5      20.330483   18.855816   24.055301 H          1 MOL1         0.0752
      12    H6      21.826346   19.782008   24.059600 H          1 MOL1         0.0752
      13    C5      20.353188   20.519190   22.640378 C.3        1 MOL1        -0.1858
      14    H7      19.266747   20.670730   22.581352 H          1 MOL1         0.0752
      15    H8      20.804707   21.519843   22.599492 H          1 MOL1         0.0752
      16    C6      20.843603   19.708388   21.413810 C.3        1 MOL1        -0.1858
      17    H9      21.754011   19.148017   21.666790 H          1 MOL1         0.0752
      18    H10     21.138994   20.419538   20.630323 H          1 MOL1         0.0752
      19    C7      19.785400   18.756201   20.803463 C.3        1 MOL1        -0.1834
      20    H11     18.913905   19.337926   20.472848 H          1 MOL1         0.0752
      21    H12     20.209324   18.297544   19.899543 H          1 MOL1         0.0752
      22    C8      19.320488   17.634328   21.755186 C.3        1 MOL1        -0.2849
      23    H13     18.746819   18.041898   22.597007 H          1 MOL1         0.0764
      24    H14     18.671232   16.925564   21.225259 H          1 MOL1         0.0764
      25    H15     20.177057   17.076053   22.154783 H          1 MOL1         0.0764
@<TRIPOS>BOND
    1     1     2    1
    2     1     3    2
    3     1     4    1
    4     4     5    1
    5     4     6    1
    6     4     7    1
    7     7     8    1
    8     7     9    1
    9     7    10    1
   10    10    11    1
   11    10    12    1
   12    10    13    1
   13    13    14    1
   14    13    15    1
   15    13    16    1
   16    16    17    1
   17    16    18    1
   18    16    19    1
   19    19    20    1
   20    19    21    1
   21    19    22    1
   22    22    23    1
   23    22    24    1
   24    22    25    1
@<TRIPOS>SUBSTRUCTURE
       1 MOL1            1 RESIDUE      1      MOL     
@<SCITEGIC>MOL_PROPERTY
VM2 Rank
SciTegic.value.IntegerValue
137

@<SCITEGIC>MOL_PROPERTY
Conf_Id
SciTegic.value.IntegerValue
796

@<SCITEGIC>MOL_PROPERTY
Probability
SciTegic.value.DoubleValue
0.00

@<SCITEGIC>MOL_PROPERTY
Sum Probability
SciTegic.value.DoubleValue
99.98

@<SCITEGIC>MOL_PROPERTY
Delta G
SciTegic.value.DoubleValue
5.532

@<SCITEGIC>MOL_PROPERTY
G
SciTegic.value.DoubleValue
-2.430

@<SCITEGIC>MOL_PROPERTY
E
SciTegic.value.DoubleValue
-27.491

@<SCITEGIC>MOL_PROPERTY
-TS
SciTegic.value.DoubleValue
25.060

@<SCITEGIC>MOL_PROPERTY
U+W
SciTegic.value.DoubleValue
-48.058

@<SCITEGIC>MOL_PROPERTY
U
SciTegic.value.DoubleValue
12.640

@<SCITEGIC>MOL_PROPERTY
W
SciTegic.value.DoubleValue
-60.699

@<SCITEGIC>MOL_PROPERTY
W(PB)
SciTegic.value.DoubleValue
-63.101

@<SCITEGIC>MOL_PROPERTY
W(SA)
SciTegic.value.DoubleValue
2.402

@<SCITEGIC>MOL_PROPERTY
Valence
SciTegic.value.DoubleValue
10.756

@<SCITEGIC>MOL_PROPERTY
Coulomb
SciTegic.value.DoubleValue
1.146

@<SCITEGIC>MOL_PROPERTY
VdW
SciTegic.value.DoubleValue
0.738

@<SCITEGIC>MOL_PROPERTY
VdW6
SciTegic.value.DoubleValue
-10.212

@<SCITEGIC>MOL_PROPERTY
VdW12
SciTegic.value.DoubleValue
10.950

@<SCITEGIC>MOL_PROPERTY
Bond
SciTegic.value.DoubleValue
0.214

@<SCITEGIC>MOL_PROPERTY
Angle
SciTegic.value.DoubleValue
3.129

@<SCITEGIC>MOL_PROPERTY
Pdih
SciTegic.value.DoubleValue
7.413

@<SCITEGIC>MOL_PROPERTY
Idih
SciTegic.value.DoubleValue
0.001

@<SCITEGIC>MOL_PROPERTY
Tether
SciTegic.value.DoubleValue
0.000

@<TRIPOS>MOLECULE
guest-8_vm2.mol2 : vm2 ligand conformer 138
          25          24           1
SMALL
USER_CHARGES
 
@<TRIPOS>ATOM
       1    C1      19.676029   18.965395   26.697683 C.2        1 MOL1         0.6168
       2    O1      20.315736   18.012970   27.098681 O.co2      1 MOL1        -0.6703
       3    O2      18.470607   18.949783   26.543494 O.co2      1 MOL1        -0.6703
       4    C2      20.422816   20.261091   26.392989 C.3        1 MOL1        -0.1963
       5    H1      21.400951   20.227308   26.887843 H          1 MOL1         0.0750
       6    H2      19.860151   21.080026   26.856304 H          1 MOL1         0.0750
       7    C3      20.596634   20.543816   24.878430 C.3        1 MOL1        -0.1860
       8    H3      19.610171   20.544102   24.399031 H          1 MOL1         0.0752
       9    H4      21.004814   21.555335   24.750199 H          1 MOL1         0.0752
      10    C4      21.539583   19.526806   24.190110 C.3        1 MOL1        -0.1858
      11    H5      21.189211   18.499143   24.358573 H          1 MOL1         0.0752
      12    H6      22.525173   19.594508   24.670583 H          1 MOL1         0.0752
      13    C5      21.711604   19.783565   22.671544 C.3        1 MOL1        -0.1858
      14    H7      21.571363   20.849631   22.446504 H          1 MOL1         0.0752
      15    H8      22.751875   19.556043   22.401589 H          1 MOL1         0.0752
      16    C6      20.795730   18.923764   21.764312 C.3        1 MOL1        -0.1858
      17    H9      21.018338   17.860144   21.925585 H          1 MOL1         0.0752
      18    H10     21.050334   19.136245   20.717017 H          1 MOL1         0.0752
      19    C7      19.284947   19.167088   21.972597 C.3        1 MOL1        -0.1834
      20    H11     18.990706   18.844362   22.980394 H          1 MOL1         0.0752
      21    H12     19.067719   20.241447   21.898419 H          1 MOL1         0.0752
      22    C8      18.439313   18.399722   20.936162 C.3        1 MOL1        -0.2849
      23    H13     17.368974   18.576862   21.103492 H          1 MOL1         0.0764
      24    H14     18.680502   18.722416   19.914906 H          1 MOL1         0.0764
      25    H15     18.619015   17.318924   21.006181 H          1 MOL1         0.0764
@<TRIPOS>BOND
    1     1     2    1
    2     1     3    2
    3     1     4    1
    4     4     5    1
    5     4     6    1
    6     4     7    1
    7     7     8    1
    8     7     9    1
    9     7    10    1
   10    10    11    1
   11    10    12    1
   12    10    13    1
   13    13    14    1
   14    13    15    1
   15    13    16    1
   16    16    17    1
   17    16    18    1
   18    16    19    1
   19    19    20    1
   20    19    21    1
   21    19    22    1
   22    22    23    1
   23    22    24    1
   24    22    25    1
@<TRIPOS>SUBSTRUCTURE
       1 MOL1            1 RESIDUE      1      MOL     
@<SCITEGIC>MOL_PROPERTY
VM2 Rank
SciTegic.value.IntegerValue
138

@<SCITEGIC>MOL_PROPERTY
Conf_Id
SciTegic.value.IntegerValue
561

@<SCITEGIC>MOL_PROPERTY
Probability
SciTegic.value.DoubleValue
0.00

@<SCITEGIC>MOL_PROPERTY
Sum Probability
SciTegic.value.DoubleValue
99.98

@<SCITEGIC>MOL_PROPERTY
Delta G
SciTegic.value.DoubleValue
5.581

@<SCITEGIC>MOL_PROPERTY
G
SciTegic.value.DoubleValue
-2.382

@<SCITEGIC>MOL_PROPERTY
E
SciTegic.value.DoubleValue
-27.508

@<SCITEGIC>MOL_PROPERTY
-TS
SciTegic.value.DoubleValue
25.127

@<SCITEGIC>MOL_PROPERTY
U+W
SciTegic.value.DoubleValue
-48.076

@<SCITEGIC>MOL_PROPERTY
U
SciTegic.value.DoubleValue
12.690

@<SCITEGIC>MOL_PROPERTY
W
SciTegic.value.DoubleValue
-60.766

@<SCITEGIC>MOL_PROPERTY
W(PB)
SciTegic.value.DoubleValue
-63.197

@<SCITEGIC>MOL_PROPERTY
W(SA)
SciTegic.value.DoubleValue
2.432

@<SCITEGIC>MOL_PROPERTY
Valence
SciTegic.value.DoubleValue
10.791

@<SCITEGIC>MOL_PROPERTY
Coulomb
SciTegic.value.DoubleValue
1.261

@<SCITEGIC>MOL_PROPERTY
VdW
SciTegic.value.DoubleValue
0.637

@<SCITEGIC>MOL_PROPERTY
VdW6
SciTegic.value.DoubleValue
-10.463

@<SCITEGIC>MOL_PROPERTY
VdW12
SciTegic.value.DoubleValue
11.100

@<SCITEGIC>MOL_PROPERTY
Bond
SciTegic.value.DoubleValue
0.216

@<SCITEGIC>MOL_PROPERTY
Angle
SciTegic.value.DoubleValue
3.124

@<SCITEGIC>MOL_PROPERTY
Pdih
SciTegic.value.DoubleValue
7.450

@<SCITEGIC>MOL_PROPERTY
Idih
SciTegic.value.DoubleValue
0.001

@<SCITEGIC>MOL_PROPERTY
Tether
SciTegic.value.DoubleValue
0.000

@<TRIPOS>MOLECULE
guest-8_vm2.mol2 : vm2 ligand conformer 139
          25          24           1
SMALL
USER_CHARGES
 
@<TRIPOS>ATOM
       1    C1      20.223230   19.756196   27.108695 C.2        1 MOL1         0.6168
       2    O1      21.311311   19.894205   27.631989 O.co2      1 MOL1        -0.6703
       3    O2      19.177579   19.729924   27.727374 O.co2      1 MOL1        -0.6703
       4    C2      20.169098   19.583688   25.594993 C.3        1 MOL1        -0.1963
       5    H1      21.004261   20.143417   25.157302 H          1 MOL1         0.0750
       6    H2      19.239770   20.045135   25.244123 H          1 MOL1         0.0750
       7    C3      20.229660   18.098646   25.157843 C.3        1 MOL1        -0.1860
       8    H3      21.074899   17.616986   25.668751 H          1 MOL1         0.0752
       9    H4      19.325368   17.581495   25.507022 H          1 MOL1         0.0752
      10    C4      20.397099   17.884967   23.632231 C.3        1 MOL1        -0.1858
      11    H5      20.478802   16.802847   23.462011 H          1 MOL1         0.0752
      12    H6      21.353519   18.304601   23.299010 H          1 MOL1         0.0752
      13    C5      19.223121   18.413714   22.764789 C.3        1 MOL1        -0.1858
      14    H7      19.088469   17.739621   21.909158 H          1 MOL1         0.0752
      15    H8      18.288736   18.339911   23.337387 H          1 MOL1         0.0752
      16    C6      19.380702   19.863662   22.229143 C.3        1 MOL1        -0.1858
      17    H9      19.454256   20.566748   23.066170 H          1 MOL1         0.0752
      18    H10     18.459167   20.134443   21.696297 H          1 MOL1         0.0752
      19    C7      20.581346   20.101879   21.278545 C.3        1 MOL1        -0.1834
      20    H11     20.568800   21.153743   20.961612 H          1 MOL1         0.0752
      21    H12     21.528475   19.962329   21.814973 H          1 MOL1         0.0752
      22    C8      20.559855   19.207120   20.020397 C.3        1 MOL1        -0.2849
      23    H13     19.607589   19.306274   19.483427 H          1 MOL1         0.0764
      24    H14     21.367346   19.491219   19.333363 H          1 MOL1         0.0764
      25    H15     20.702119   18.150664   20.280455 H          1 MOL1         0.0764
@<TRIPOS>BOND
    1     1     2    1
    2     1     3    2
    3     1     4    1
    4     4     5    1
    5     4     6    1
    6     4     7    1
    7     7     8    1
    8     7     9    1
    9     7    10    1
   10    10    11    1
   11    10    12    1
   12    10    13    1
   13    13    14    1
   14    13    15    1
   15    13    16    1
   16    16    17    1
   17    16    18    1
   18    16    19    1
   19    19    20    1
   20    19    21    1
   21    19    22    1
   22    22    23    1
   23    22    24    1
   24    22    25    1
@<TRIPOS>SUBSTRUCTURE
       1 MOL1            1 RESIDUE      1      MOL     
@<SCITEGIC>MOL_PROPERTY
VM2 Rank
SciTegic.value.IntegerValue
139

@<SCITEGIC>MOL_PROPERTY
Conf_Id
SciTegic.value.IntegerValue
225

@<SCITEGIC>MOL_PROPERTY
Probability
SciTegic.value.DoubleValue
0.00

@<SCITEGIC>MOL_PROPERTY
Sum Probability
SciTegic.value.DoubleValue
99.98

@<SCITEGIC>MOL_PROPERTY
Delta G
SciTegic.value.DoubleValue
5.609

@<SCITEGIC>MOL_PROPERTY
G
SciTegic.value.DoubleValue
-2.353

@<SCITEGIC>MOL_PROPERTY
E
SciTegic.value.DoubleValue
-27.057

@<SCITEGIC>MOL_PROPERTY
-TS
SciTegic.value.DoubleValue
24.704

@<SCITEGIC>MOL_PROPERTY
U+W
SciTegic.value.DoubleValue
-47.625

@<SCITEGIC>MOL_PROPERTY
U
SciTegic.value.DoubleValue
11.838

@<SCITEGIC>MOL_PROPERTY
W
SciTegic.value.DoubleValue
-59.463

@<SCITEGIC>MOL_PROPERTY
W(PB)
SciTegic.value.DoubleValue
-61.851

@<SCITEGIC>MOL_PROPERTY
W(SA)
SciTegic.value.DoubleValue
2.388

@<SCITEGIC>MOL_PROPERTY
Valence
SciTegic.value.DoubleValue
11.761

@<SCITEGIC>MOL_PROPERTY
Coulomb
SciTegic.value.DoubleValue
-1.045

@<SCITEGIC>MOL_PROPERTY
VdW
SciTegic.value.DoubleValue
1.122

@<SCITEGIC>MOL_PROPERTY
VdW6
SciTegic.value.DoubleValue
-10.752

@<SCITEGIC>MOL_PROPERTY
VdW12
SciTegic.value.DoubleValue
11.875

@<SCITEGIC>MOL_PROPERTY
Bond
SciTegic.value.DoubleValue
0.310

@<SCITEGIC>MOL_PROPERTY
Angle
SciTegic.value.DoubleValue
4.049

@<SCITEGIC>MOL_PROPERTY
Pdih
SciTegic.value.DoubleValue
7.401

@<SCITEGIC>MOL_PROPERTY
Idih
SciTegic.value.DoubleValue
0.001

@<SCITEGIC>MOL_PROPERTY
Tether
SciTegic.value.DoubleValue
0.000

@<TRIPOS>MOLECULE
guest-8_vm2.mol2 : vm2 ligand conformer 140
          25          24           1
SMALL
USER_CHARGES
 
@<TRIPOS>ATOM
       1    C1      20.140914   18.899668   26.786332 C.2        1 MOL1         0.6168
       2    O1      21.193830   18.316357   26.954944 O.co2      1 MOL1        -0.6703
       3    O2      19.053831   18.386333   26.966264 O.co2      1 MOL1        -0.6703
       4    C2      20.190147   20.374798   26.392831 C.3        1 MOL1        -0.1963
       5    H1      21.237914   20.691805   26.326194 H          1 MOL1         0.0750
       6    H2      19.747205   20.930220   27.227559 H          1 MOL1         0.0750
       7    C3      19.432184   20.738855   25.084964 C.3        1 MOL1        -0.1860
       8    H3      18.460552   20.226201   25.058811 H          1 MOL1         0.0752
       9    H4      19.205290   21.813124   25.114185 H          1 MOL1         0.0752
      10    C4      20.215104   20.459797   23.777673 C.3        1 MOL1        -0.1858
      11    H5      21.185166   20.973932   23.809949 H          1 MOL1         0.0752
      12    H6      19.652046   20.911559   22.951352 H          1 MOL1         0.0752
      13    C5      20.431933   18.956101   23.481523 C.3        1 MOL1        -0.1858
      14    H7      21.038871   18.513823   24.280588 H          1 MOL1         0.0752
      15    H8      19.469255   18.428947   23.502260 H          1 MOL1         0.0752
      16    C6      21.158176   18.685935   22.138907 C.3        1 MOL1        -0.1858
      17    H9      21.336471   17.605678   22.050030 H          1 MOL1         0.0752
      18    H10     22.151257   19.154283   22.171569 H          1 MOL1         0.0752
      19    C7      20.418213   19.172408   20.867800 C.3        1 MOL1        -0.1834
      20    H11     20.334815   20.267015   20.871460 H          1 MOL1         0.0752
      21    H12     21.029461   18.919648   19.990581 H          1 MOL1         0.0752
      22    C8      19.018669   18.543747   20.694762 C.3        1 MOL1        -0.2849
      23    H13     18.578026   18.844613   19.735565 H          1 MOL1         0.0764
      24    H14     19.075271   17.447644   20.712874 H          1 MOL1         0.0764
      25    H15     18.335743   18.867307   21.490411 H          1 MOL1         0.0764
@<TRIPOS>BOND
    1     1     2    1
    2     1     3    2
    3     1     4    1
    4     4     5    1
    5     4     6    1
    6     4     7    1
    7     7     8    1
    8     7     9    1
    9     7    10    1
   10    10    11    1
   11    10    12    1
   12    10    13    1
   13    13    14    1
   14    13    15    1
   15    13    16    1
   16    16    17    1
   17    16    18    1
   18    16    19    1
   19    19    20    1
   20    19    21    1
   21    19    22    1
   22    22    23    1
   23    22    24    1
   24    22    25    1
@<TRIPOS>SUBSTRUCTURE
       1 MOL1            1 RESIDUE      1      MOL     
@<SCITEGIC>MOL_PROPERTY
VM2 Rank
SciTegic.value.IntegerValue
140

@<SCITEGIC>MOL_PROPERTY
Conf_Id
SciTegic.value.IntegerValue
90

@<SCITEGIC>MOL_PROPERTY
Probability
SciTegic.value.DoubleValue
0.00

@<SCITEGIC>MOL_PROPERTY
Sum Probability
SciTegic.value.DoubleValue
99.98

@<SCITEGIC>MOL_PROPERTY
Delta G
SciTegic.value.DoubleValue
5.677

@<SCITEGIC>MOL_PROPERTY
G
SciTegic.value.DoubleValue
-2.286

@<SCITEGIC>MOL_PROPERTY
E
SciTegic.value.DoubleValue
-27.599

@<SCITEGIC>MOL_PROPERTY
-TS
SciTegic.value.DoubleValue
25.314

@<SCITEGIC>MOL_PROPERTY
U+W
SciTegic.value.DoubleValue
-48.167

@<SCITEGIC>MOL_PROPERTY
U
SciTegic.value.DoubleValue
12.473

@<SCITEGIC>MOL_PROPERTY
W
SciTegic.value.DoubleValue
-60.640

@<SCITEGIC>MOL_PROPERTY
W(PB)
SciTegic.value.DoubleValue
-63.030

@<SCITEGIC>MOL_PROPERTY
W(SA)
SciTegic.value.DoubleValue
2.391

@<SCITEGIC>MOL_PROPERTY
Valence
SciTegic.value.DoubleValue
10.551

@<SCITEGIC>MOL_PROPERTY
Coulomb
SciTegic.value.DoubleValue
1.040

@<SCITEGIC>MOL_PROPERTY
VdW
SciTegic.value.DoubleValue
0.882

@<SCITEGIC>MOL_PROPERTY
VdW6
SciTegic.value.DoubleValue
-11.389

@<SCITEGIC>MOL_PROPERTY
VdW12
SciTegic.value.DoubleValue
12.271

@<SCITEGIC>MOL_PROPERTY
Bond
SciTegic.value.DoubleValue
0.286

@<SCITEGIC>MOL_PROPERTY
Angle
SciTegic.value.DoubleValue
3.973

@<SCITEGIC>MOL_PROPERTY
Pdih
SciTegic.value.DoubleValue
6.285

@<SCITEGIC>MOL_PROPERTY
Idih
SciTegic.value.DoubleValue
0.006

@<SCITEGIC>MOL_PROPERTY
Tether
SciTegic.value.DoubleValue
0.000

@<TRIPOS>MOLECULE
guest-8_vm2.mol2 : vm2 ligand conformer 141
          25          24           1
SMALL
USER_CHARGES
 
@<TRIPOS>ATOM
       1    C1      19.666710   19.049687   26.547028 C.2        1 MOL1         0.6168
       2    O1      20.414537   18.320182   27.168625 O.co2      1 MOL1        -0.6703
       3    O2      18.518358   18.758582   26.275457 O.co2      1 MOL1        -0.6703
       4    C2      20.172493   20.433950   26.145514 C.3        1 MOL1        -0.1963
       5    H1      20.373762   20.971724   27.079153 H          1 MOL1         0.0750
       6    H2      19.363885   20.975052   25.639367 H          1 MOL1         0.0750
       7    C3      21.456534   20.443137   25.269013 C.3        1 MOL1        -0.1860
       8    H3      21.911679   21.439856   25.344704 H          1 MOL1         0.0752
       9    H4      22.195846   19.741335   25.679358 H          1 MOL1         0.0752
      10    C4      21.217174   20.146382   23.767859 C.3        1 MOL1        -0.1858
      11    H5      22.153656   20.335728   23.225886 H          1 MOL1         0.0752
      12    H6      20.479537   20.856301   23.371051 H          1 MOL1         0.0752
      13    C5      20.760484   18.696337   23.478869 C.3        1 MOL1        -0.1858
      14    H7      21.418412   17.998926   24.014963 H          1 MOL1         0.0752
      15    H8      19.751880   18.532288   23.876846 H          1 MOL1         0.0752
      16    C6      20.783467   18.334707   21.972251 C.3        1 MOL1        -0.1858
      17    H9      20.487048   17.283226   21.857732 H          1 MOL1         0.0752
      18    H10     21.817126   18.399711   21.606303 H          1 MOL1         0.0752
      19    C7      19.879092   19.211314   21.070751 C.3        1 MOL1        -0.1834
      20    H11     20.217757   20.255519   21.096371 H          1 MOL1         0.0752
      21    H12     19.995617   18.879592   20.029907 H          1 MOL1         0.0752
      22    C8      18.384152   19.139722   21.450634 C.3        1 MOL1        -0.2849
      23    H13     17.777155   19.705595   20.732289 H          1 MOL1         0.0764
      24    H14     18.028394   18.101280   21.451365 H          1 MOL1         0.0764
      25    H15     18.204930   19.565482   22.446214 H          1 MOL1         0.0764
@<TRIPOS>BOND
    1     1     2    1
    2     1     3    2
    3     1     4    1
    4     4     5    1
    5     4     6    1
    6     4     7    1
    7     7     8    1
    8     7     9    1
    9     7    10    1
   10    10    11    1
   11    10    12    1
   12    10    13    1
   13    13    14    1
   14    13    15    1
   15    13    16    1
   16    16    17    1
   17    16    18    1
   18    16    19    1
   19    19    20    1
   20    19    21    1
   21    19    22    1
   22    22    23    1
   23    22    24    1
   24    22    25    1
@<TRIPOS>SUBSTRUCTURE
       1 MOL1            1 RESIDUE      1      MOL     
@<SCITEGIC>MOL_PROPERTY
VM2 Rank
SciTegic.value.IntegerValue
141

@<SCITEGIC>MOL_PROPERTY
Conf_Id
SciTegic.value.IntegerValue
529

@<SCITEGIC>MOL_PROPERTY
Probability
SciTegic.value.DoubleValue
0.00

@<SCITEGIC>MOL_PROPERTY
Sum Probability
SciTegic.value.DoubleValue
99.98

@<SCITEGIC>MOL_PROPERTY
Delta G
SciTegic.value.DoubleValue
5.811

@<SCITEGIC>MOL_PROPERTY
G
SciTegic.value.DoubleValue
-2.151

@<SCITEGIC>MOL_PROPERTY
E
SciTegic.value.DoubleValue
-27.595

@<SCITEGIC>MOL_PROPERTY
-TS
SciTegic.value.DoubleValue
25.443

@<SCITEGIC>MOL_PROPERTY
U+W
SciTegic.value.DoubleValue
-48.162

@<SCITEGIC>MOL_PROPERTY
U
SciTegic.value.DoubleValue
12.721

@<SCITEGIC>MOL_PROPERTY
W
SciTegic.value.DoubleValue
-60.883

@<SCITEGIC>MOL_PROPERTY
W(PB)
SciTegic.value.DoubleValue
-63.249

@<SCITEGIC>MOL_PROPERTY
W(SA)
SciTegic.value.DoubleValue
2.365

@<SCITEGIC>MOL_PROPERTY
Valence
SciTegic.value.DoubleValue
10.326

@<SCITEGIC>MOL_PROPERTY
Coulomb
SciTegic.value.DoubleValue
1.750

@<SCITEGIC>MOL_PROPERTY
VdW
SciTegic.value.DoubleValue
0.646

@<SCITEGIC>MOL_PROPERTY
VdW6
SciTegic.value.DoubleValue
-11.745

@<SCITEGIC>MOL_PROPERTY
VdW12
SciTegic.value.DoubleValue
12.391

@<SCITEGIC>MOL_PROPERTY
Bond
SciTegic.value.DoubleValue
0.275

@<SCITEGIC>MOL_PROPERTY
Angle
SciTegic.value.DoubleValue
3.728

@<SCITEGIC>MOL_PROPERTY
Pdih
SciTegic.value.DoubleValue
6.316

@<SCITEGIC>MOL_PROPERTY
Idih
SciTegic.value.DoubleValue
0.007

@<SCITEGIC>MOL_PROPERTY
Tether
SciTegic.value.DoubleValue
0.000

@<TRIPOS>MOLECULE
guest-8_vm2.mol2 : vm2 ligand conformer 142
          25          24           1
SMALL
USER_CHARGES
 
@<TRIPOS>ATOM
       1    C1      20.473790   18.928609   26.944105 C.2        1 MOL1         0.6168
       2    O1      21.553219   19.437744   27.172902 O.co2      1 MOL1        -0.6703
       3    O2      19.726980   18.516611   27.809794 O.co2      1 MOL1        -0.6703
       4    C2      20.022335   18.818678   25.492264 C.3        1 MOL1        -0.1963
       5    H1      19.404734   17.917725   25.397513 H          1 MOL1         0.0750
       6    H2      20.914463   18.662361   24.879337 H          1 MOL1         0.0750
       7    C3      19.227173   20.062841   25.016347 C.3        1 MOL1        -0.1860
       8    H3      18.374151   20.195071   25.696294 H          1 MOL1         0.0752
       9    H4      19.842937   20.966690   25.120912 H          1 MOL1         0.0752
      10    C4      18.684201   19.946967   23.568622 C.3        1 MOL1        -0.1858
      11    H5      17.733297   20.495220   23.525096 H          1 MOL1         0.0752
      12    H6      18.430297   18.905223   23.333115 H          1 MOL1         0.0752
      13    C5      19.606332   20.548872   22.475596 C.3        1 MOL1        -0.1858
      14    H7      19.057660   20.565040   21.524914 H          1 MOL1         0.0752
      15    H8      19.799980   21.602378   22.718511 H          1 MOL1         0.0752
      16    C6      20.964808   19.834834   22.258415 C.3        1 MOL1        -0.1858
      17    H9      21.579049   19.940356   23.161182 H          1 MOL1         0.0752
      18    H10     21.513574   20.365518   21.468699 H          1 MOL1         0.0752
      19    C7      20.867586   18.338136   21.870740 C.3        1 MOL1        -0.1834
      20    H11     21.884666   17.931441   21.787298 H          1 MOL1         0.0752
      21    H12     20.376376   17.768308   22.669702 H          1 MOL1         0.0752
      22    C8      20.126577   18.100708   20.537215 C.3        1 MOL1        -0.2849
      23    H13     19.071138   18.391442   20.611023 H          1 MOL1         0.0764
      24    H14     20.587092   18.676090   19.723714 H          1 MOL1         0.0764
      25    H15     20.160770   17.038605   20.262464 H          1 MOL1         0.0764
@<TRIPOS>BOND
    1     1     2    1
    2     1     3    2
    3     1     4    1
    4     4     5    1
    5     4     6    1
    6     4     7    1
    7     7     8    1
    8     7     9    1
    9     7    10    1
   10    10    11    1
   11    10    12    1
   12    10    13    1
   13    13    14    1
   14    13    15    1
   15    13    16    1
   16    16    17    1
   17    16    18    1
   18    16    19    1
   19    19    20    1
   20    19    21    1
   21    19    22    1
   22    22    23    1
   23    22    24    1
   24    22    25    1
@<TRIPOS>SUBSTRUCTURE
       1 MOL1            1 RESIDUE      1      MOL     
@<SCITEGIC>MOL_PROPERTY
VM2 Rank
SciTegic.value.IntegerValue
142

@<SCITEGIC>MOL_PROPERTY
Conf_Id
SciTegic.value.IntegerValue
231

@<SCITEGIC>MOL_PROPERTY
Probability
SciTegic.value.DoubleValue
0.00

@<SCITEGIC>MOL_PROPERTY
Sum Probability
SciTegic.value.DoubleValue
99.99

@<SCITEGIC>MOL_PROPERTY
Delta G
SciTegic.value.DoubleValue
5.890

@<SCITEGIC>MOL_PROPERTY
G
SciTegic.value.DoubleValue
-2.072

@<SCITEGIC>MOL_PROPERTY
E
SciTegic.value.DoubleValue
-27.514

@<SCITEGIC>MOL_PROPERTY
-TS
SciTegic.value.DoubleValue
25.442

@<SCITEGIC>MOL_PROPERTY
U+W
SciTegic.value.DoubleValue
-48.082

@<SCITEGIC>MOL_PROPERTY
U
SciTegic.value.DoubleValue
11.683

@<SCITEGIC>MOL_PROPERTY
W
SciTegic.value.DoubleValue
-59.764

@<SCITEGIC>MOL_PROPERTY
W(PB)
SciTegic.value.DoubleValue
-62.140

@<SCITEGIC>MOL_PROPERTY
W(SA)
SciTegic.value.DoubleValue
2.375

@<SCITEGIC>MOL_PROPERTY
Valence
SciTegic.value.DoubleValue
11.569

@<SCITEGIC>MOL_PROPERTY
Coulomb
SciTegic.value.DoubleValue
-0.570

@<SCITEGIC>MOL_PROPERTY
VdW
SciTegic.value.DoubleValue
0.684

@<SCITEGIC>MOL_PROPERTY
VdW6
SciTegic.value.DoubleValue
-11.332

@<SCITEGIC>MOL_PROPERTY
VdW12
SciTegic.value.DoubleValue
12.017

@<SCITEGIC>MOL_PROPERTY
Bond
SciTegic.value.DoubleValue
0.291

@<SCITEGIC>MOL_PROPERTY
Angle
SciTegic.value.DoubleValue
3.994

@<SCITEGIC>MOL_PROPERTY
Pdih
SciTegic.value.DoubleValue
7.283

@<SCITEGIC>MOL_PROPERTY
Idih
SciTegic.value.DoubleValue
0.001

@<SCITEGIC>MOL_PROPERTY
Tether
SciTegic.value.DoubleValue
0.000

@<TRIPOS>MOLECULE
guest-8_vm2.mol2 : vm2 ligand conformer 143
          25          24           1
SMALL
USER_CHARGES
 
@<TRIPOS>ATOM
       1    C1      20.538913   19.308886   26.985387 C.2        1 MOL1         0.6168
       2    O1      21.694423   19.682835   26.943790 O.co2      1 MOL1        -0.6703
       3    O2      20.071934   18.667499   27.905976 O.co2      1 MOL1        -0.6703
       4    C2      19.629370   19.646548   25.809533 C.3        1 MOL1        -0.1963
       5    H1      19.954897   20.610423   25.402152 H          1 MOL1         0.0750
       6    H2      18.611323   19.781294   26.193659 H          1 MOL1         0.0750
       7    C3      19.645885   18.556927   24.706559 C.3        1 MOL1        -0.1860
       8    H3      20.664276   18.456334   24.309718 H          1 MOL1         0.0752
       9    H4      19.400211   17.588381   25.163229 H          1 MOL1         0.0752
      10    C4      18.644958   18.827927   23.554745 C.3        1 MOL1        -0.1858
      11    H5      17.628264   18.844710   23.970103 H          1 MOL1         0.0752
      12    H6      18.659959   17.985048   22.852871 H          1 MOL1         0.0752
      13    C5      18.878527   20.147181   22.775522 C.3        1 MOL1        -0.1858
      14    H7      18.108061   20.235376   21.997708 H          1 MOL1         0.0752
      15    H8      18.707367   20.994748   23.451769 H          1 MOL1         0.0752
      16    C6      20.273586   20.314264   22.116808 C.3        1 MOL1        -0.1858
      17    H9      21.069314   20.268929   22.871870 H          1 MOL1         0.0752
      18    H10     20.316783   21.333607   21.709757 H          1 MOL1         0.0752
      19    C7      20.569049   19.333047   20.954039 C.3        1 MOL1        -0.1834
      20    H11     19.639889   19.075904   20.427280 H          1 MOL1         0.0752
      21    H12     21.202862   19.848695   20.219455 H          1 MOL1         0.0752
      22    C8      21.306354   18.048886   21.393641 C.3        1 MOL1        -0.2849
      23    H13     21.554542   17.432360   20.520156 H          1 MOL1         0.0764
      24    H14     22.243892   18.292662   21.909889 H          1 MOL1         0.0764
      25    H15     20.695895   17.437509   22.066619 H          1 MOL1         0.0764
@<TRIPOS>BOND
    1     1     2    1
    2     1     3    2
    3     1     4    1
    4     4     5    1
    5     4     6    1
    6     4     7    1
    7     7     8    1
    8     7     9    1
    9     7    10    1
   10    10    11    1
   11    10    12    1
   12    10    13    1
   13    13    14    1
   14    13    15    1
   15    13    16    1
   16    16    17    1
   17    16    18    1
   18    16    19    1
   19    19    20    1
   20    19    21    1
   21    19    22    1
   22    22    23    1
   23    22    24    1
   24    22    25    1
@<TRIPOS>SUBSTRUCTURE
       1 MOL1            1 RESIDUE      1      MOL     
@<SCITEGIC>MOL_PROPERTY
VM2 Rank
SciTegic.value.IntegerValue
143

@<SCITEGIC>MOL_PROPERTY
Conf_Id
SciTegic.value.IntegerValue
243

@<SCITEGIC>MOL_PROPERTY
Probability
SciTegic.value.DoubleValue
0.00

@<SCITEGIC>MOL_PROPERTY
Sum Probability
SciTegic.value.DoubleValue
99.99

@<SCITEGIC>MOL_PROPERTY
Delta G
SciTegic.value.DoubleValue
5.971

@<SCITEGIC>MOL_PROPERTY
G
SciTegic.value.DoubleValue
-1.991

@<SCITEGIC>MOL_PROPERTY
E
SciTegic.value.DoubleValue
-27.417

@<SCITEGIC>MOL_PROPERTY
-TS
SciTegic.value.DoubleValue
25.426

@<SCITEGIC>MOL_PROPERTY
U+W
SciTegic.value.DoubleValue
-47.984

@<SCITEGIC>MOL_PROPERTY
U
SciTegic.value.DoubleValue
12.079

@<SCITEGIC>MOL_PROPERTY
W
SciTegic.value.DoubleValue
-60.063

@<SCITEGIC>MOL_PROPERTY
W(PB)
SciTegic.value.DoubleValue
-62.445

@<SCITEGIC>MOL_PROPERTY
W(SA)
SciTegic.value.DoubleValue
2.381

@<SCITEGIC>MOL_PROPERTY
Valence
SciTegic.value.DoubleValue
11.557

@<SCITEGIC>MOL_PROPERTY
Coulomb
SciTegic.value.DoubleValue
-0.144

@<SCITEGIC>MOL_PROPERTY
VdW
SciTegic.value.DoubleValue
0.667

@<SCITEGIC>MOL_PROPERTY
VdW6
SciTegic.value.DoubleValue
-11.344

@<SCITEGIC>MOL_PROPERTY
VdW12
SciTegic.value.DoubleValue
12.010

@<SCITEGIC>MOL_PROPERTY
Bond
SciTegic.value.DoubleValue
0.285

@<SCITEGIC>MOL_PROPERTY
Angle
SciTegic.value.DoubleValue
4.008

@<SCITEGIC>MOL_PROPERTY
Pdih
SciTegic.value.DoubleValue
7.263

@<SCITEGIC>MOL_PROPERTY
Idih
SciTegic.value.DoubleValue
0.000

@<SCITEGIC>MOL_PROPERTY
Tether
SciTegic.value.DoubleValue
0.000

@<TRIPOS>MOLECULE
guest-8_vm2.mol2 : vm2 ligand conformer 144
          25          24           1
SMALL
USER_CHARGES
 
@<TRIPOS>ATOM
       1    C1      20.760600   19.488795   26.428205 C.2        1 MOL1         0.6168
       2    O1      21.809935   19.633294   25.832902 O.co2      1 MOL1        -0.6703
       3    O2      20.660592   18.867345   27.468318 O.co2      1 MOL1        -0.6703
       4    C2      19.510690   20.166450   25.870160 C.3        1 MOL1        -0.1963
       5    H1      19.784260   20.756013   24.988548 H          1 MOL1         0.0750
       6    H2      19.172062   20.883155   26.627056 H          1 MOL1         0.0750
       7    C3      18.349128   19.192005   25.536749 C.3        1 MOL1        -0.1860
       8    H3      18.074353   18.651788   26.453325 H          1 MOL1         0.0752
       9    H4      17.462418   19.773801   25.251191 H          1 MOL1         0.0752
      10    C4      18.657361   18.155890   24.425713 C.3        1 MOL1        -0.1858
      11    H5      17.812677   17.454480   24.388517 H          1 MOL1         0.0752
      12    H6      19.533017   17.550867   24.698588 H          1 MOL1         0.0752
      13    C5      18.834304   18.762973   23.010411 C.3        1 MOL1        -0.1858
      14    H7      18.372378   18.082971   22.281599 H          1 MOL1         0.0752
      15    H8      18.285096   19.711176   22.933449 H          1 MOL1         0.0752
      16    C6      20.313219   18.965815   22.606700 C.3        1 MOL1        -0.1858
      17    H9      20.839857   18.002925   22.653069 H          1 MOL1         0.0752
      18    H10     20.815168   19.631163   23.318830 H          1 MOL1         0.0752
      19    C7      20.440916   19.552795   21.185062 C.3        1 MOL1        -0.1834
      20    H11     19.950344   18.885820   20.462688 H          1 MOL1         0.0752
      21    H12     19.917910   20.517862   21.135392 H          1 MOL1         0.0752
      22    C8      21.916256   19.748638   20.781779 C.3        1 MOL1        -0.2849
      23    H13     22.455999   18.792652   20.791334 H          1 MOL1         0.0764
      24    H14     21.988811   20.169241   19.770435 H          1 MOL1         0.0764
      25    H15     22.423680   20.435180   21.472234 H          1 MOL1         0.0764
@<TRIPOS>BOND
    1     1     2    1
    2     1     3    2
    3     1     4    1
    4     4     5    1
    5     4     6    1
    6     4     7    1
    7     7     8    1
    8     7     9    1
    9     7    10    1
   10    10    11    1
   11    10    12    1
   12    10    13    1
   13    13    14    1
   14    13    15    1
   15    13    16    1
   16    16    17    1
   17    16    18    1
   18    16    19    1
   19    19    20    1
   20    19    21    1
   21    19    22    1
   22    22    23    1
   23    22    24    1
   24    22    25    1
@<TRIPOS>SUBSTRUCTURE
       1 MOL1            1 RESIDUE      1      MOL     
@<SCITEGIC>MOL_PROPERTY
VM2 Rank
SciTegic.value.IntegerValue
144

@<SCITEGIC>MOL_PROPERTY
Conf_Id
SciTegic.value.IntegerValue
214

@<SCITEGIC>MOL_PROPERTY
Probability
SciTegic.value.DoubleValue
0.00

@<SCITEGIC>MOL_PROPERTY
Sum Probability
SciTegic.value.DoubleValue
99.99

@<SCITEGIC>MOL_PROPERTY
Delta G
SciTegic.value.DoubleValue
5.972

@<SCITEGIC>MOL_PROPERTY
G
SciTegic.value.DoubleValue
-1.990

@<SCITEGIC>MOL_PROPERTY
E
SciTegic.value.DoubleValue
-27.117

@<SCITEGIC>MOL_PROPERTY
-TS
SciTegic.value.DoubleValue
25.127

@<SCITEGIC>MOL_PROPERTY
U+W
SciTegic.value.DoubleValue
-47.685

@<SCITEGIC>MOL_PROPERTY
U
SciTegic.value.DoubleValue
13.358

@<SCITEGIC>MOL_PROPERTY
W
SciTegic.value.DoubleValue
-61.043

@<SCITEGIC>MOL_PROPERTY
W(PB)
SciTegic.value.DoubleValue
-63.441

@<SCITEGIC>MOL_PROPERTY
W(SA)
SciTegic.value.DoubleValue
2.397

@<SCITEGIC>MOL_PROPERTY
Valence
SciTegic.value.DoubleValue
11.157

@<SCITEGIC>MOL_PROPERTY
Coulomb
SciTegic.value.DoubleValue
1.807

@<SCITEGIC>MOL_PROPERTY
VdW
SciTegic.value.DoubleValue
0.394

@<SCITEGIC>MOL_PROPERTY
VdW6
SciTegic.value.DoubleValue
-10.846

@<SCITEGIC>MOL_PROPERTY
VdW12
SciTegic.value.DoubleValue
11.240

@<SCITEGIC>MOL_PROPERTY
Bond
SciTegic.value.DoubleValue
0.228

@<SCITEGIC>MOL_PROPERTY
Angle
SciTegic.value.DoubleValue
3.384

@<SCITEGIC>MOL_PROPERTY
Pdih
SciTegic.value.DoubleValue
7.541

@<SCITEGIC>MOL_PROPERTY
Idih
SciTegic.value.DoubleValue
0.004

@<SCITEGIC>MOL_PROPERTY
Tether
SciTegic.value.DoubleValue
0.000

@<TRIPOS>MOLECULE
guest-8_vm2.mol2 : vm2 ligand conformer 145
          25          24           1
SMALL
USER_CHARGES
 
@<TRIPOS>ATOM
       1    C1      19.992014   19.958726   26.166848 C.2        1 MOL1         0.6168
       2    O1      20.947886   20.709507   26.182120 O.co2      1 MOL1        -0.6703
       3    O2      18.849779   20.329487   25.978139 O.co2      1 MOL1        -0.6703
       4    C2      20.224330   18.489646   26.514921 C.3        1 MOL1        -0.1963
       5    H1      19.637487   18.291628   27.419331 H          1 MOL1         0.0750
       6    H2      21.277234   18.349189   26.787518 H          1 MOL1         0.0750
       7    C3      19.810820   17.474199   25.412739 C.3        1 MOL1        -0.1860
       8    H3      19.639230   16.503606   25.897285 H          1 MOL1         0.0752
       9    H4      18.844105   17.761869   24.978573 H          1 MOL1         0.0752
      10    C4      20.869766   17.257690   24.300221 C.3        1 MOL1        -0.1858
      11    H5      20.534519   16.434549   23.654591 H          1 MOL1         0.0752
      12    H6      21.805218   16.914366   24.762512 H          1 MOL1         0.0752
      13    C5      21.177152   18.486741   23.409972 C.3        1 MOL1        -0.1858
      14    H7      21.598923   19.296795   24.018105 H          1 MOL1         0.0752
      15    H8      21.962819   18.205784   22.695635 H          1 MOL1         0.0752
      16    C6      19.949783   19.002579   22.623803 C.3        1 MOL1        -0.1858
      17    H9      19.179659   19.354687   23.322748 H          1 MOL1         0.0752
      18    H10     19.508861   18.178136   22.047350 H          1 MOL1         0.0752
      19    C7      20.327836   20.155885   21.670792 C.3        1 MOL1        -0.1834
      20    H11     20.764282   20.982326   22.249036 H          1 MOL1         0.0752
      21    H12     21.098395   19.817094   20.964611 H          1 MOL1         0.0752
      22    C8      19.103634   20.669543   20.886445 C.3        1 MOL1        -0.2849
      23    H13     18.329936   21.044229   21.569498 H          1 MOL1         0.0764
      24    H14     19.390037   21.489917   20.215681 H          1 MOL1         0.0764
      25    H15     18.664263   19.869678   20.276162 H          1 MOL1         0.0764
@<TRIPOS>BOND
    1     1     2    1
    2     1     3    2
    3     1     4    1
    4     4     5    1
    5     4     6    1
    6     4     7    1
    7     7     8    1
    8     7     9    1
    9     7    10    1
   10    10    11    1
   11    10    12    1
   12    10    13    1
   13    13    14    1
   14    13    15    1
   15    13    16    1
   16    16    17    1
   17    16    18    1
   18    16    19    1
   19    19    20    1
   20    19    21    1
   21    19    22    1
   22    22    23    1
   23    22    24    1
   24    22    25    1
@<TRIPOS>SUBSTRUCTURE
       1 MOL1            1 RESIDUE      1      MOL     
@<SCITEGIC>MOL_PROPERTY
VM2 Rank
SciTegic.value.IntegerValue
145

@<SCITEGIC>MOL_PROPERTY
Conf_Id
SciTegic.value.IntegerValue
1082

@<SCITEGIC>MOL_PROPERTY
Probability
SciTegic.value.DoubleValue
0.00

@<SCITEGIC>MOL_PROPERTY
Sum Probability
SciTegic.value.DoubleValue
99.99

@<SCITEGIC>MOL_PROPERTY
Delta G
SciTegic.value.DoubleValue
5.999

@<SCITEGIC>MOL_PROPERTY
G
SciTegic.value.DoubleValue
-1.963

@<SCITEGIC>MOL_PROPERTY
E
SciTegic.value.DoubleValue
-27.680

@<SCITEGIC>MOL_PROPERTY
-TS
SciTegic.value.DoubleValue
25.717

@<SCITEGIC>MOL_PROPERTY
U+W
SciTegic.value.DoubleValue
-48.248

@<SCITEGIC>MOL_PROPERTY
U
SciTegic.value.DoubleValue
13.046

@<SCITEGIC>MOL_PROPERTY
W
SciTegic.value.DoubleValue
-61.294

@<SCITEGIC>MOL_PROPERTY
W(PB)
SciTegic.value.DoubleValue
-63.665

@<SCITEGIC>MOL_PROPERTY
W(SA)
SciTegic.value.DoubleValue
2.371

@<SCITEGIC>MOL_PROPERTY
Valence
SciTegic.value.DoubleValue
10.098

@<SCITEGIC>MOL_PROPERTY
Coulomb
SciTegic.value.DoubleValue
2.795

@<SCITEGIC>MOL_PROPERTY
VdW
SciTegic.value.DoubleValue
0.153

@<SCITEGIC>MOL_PROPERTY
VdW6
SciTegic.value.DoubleValue
-11.572

@<SCITEGIC>MOL_PROPERTY
VdW12
SciTegic.value.DoubleValue
11.725

@<SCITEGIC>MOL_PROPERTY
Bond
SciTegic.value.DoubleValue
0.240

@<SCITEGIC>MOL_PROPERTY
Angle
SciTegic.value.DoubleValue
3.695

@<SCITEGIC>MOL_PROPERTY
Pdih
SciTegic.value.DoubleValue
6.146

@<SCITEGIC>MOL_PROPERTY
Idih
SciTegic.value.DoubleValue
0.017

@<SCITEGIC>MOL_PROPERTY
Tether
SciTegic.value.DoubleValue
0.000

@<TRIPOS>MOLECULE
guest-8_vm2.mol2 : vm2 ligand conformer 146
          25          24           1
SMALL
USER_CHARGES
 
@<TRIPOS>ATOM
       1    C1      20.779898   18.930805   26.162355 C.2        1 MOL1         0.6168
       2    O1      21.753256   19.658775   26.177427 O.co2      1 MOL1        -0.6703
       3    O2      20.840356   17.732610   25.966269 O.co2      1 MOL1        -0.6703
       4    C2      19.423120   19.534742   26.519757 C.3        1 MOL1        -0.1963
       5    H1      19.562202   20.586385   26.797870 H          1 MOL1         0.0750
       6    H2      19.083328   19.014246   27.422631 H          1 MOL1         0.0750
       7    C3      18.330377   19.405620   25.421498 C.3        1 MOL1        -0.1860
       8    H3      18.355117   18.399894   24.981392 H          1 MOL1         0.0752
       9    H4      17.350634   19.489272   25.910762 H          1 MOL1         0.0752
      10    C4      18.391635   20.490881   24.314972 C.3        1 MOL1        -0.1858
      11    H5      18.305250   21.480721   24.783387 H          1 MOL1         0.0752
      12    H6      17.506825   20.384791   23.672600 H          1 MOL1         0.0752
      13    C5      19.654407   20.473473   23.419036 C.3        1 MOL1        -0.1858
      14    H7      19.584146   21.309274   22.709821 H          1 MOL1         0.0752
      15    H8      20.548911   20.666729   24.024360 H          1 MOL1         0.0752
      16    C6      19.830080   19.158790   22.624477 C.3        1 MOL1        -0.1858
      17    H9      18.916821   18.950544   22.050887 H          1 MOL1         0.0752
      18    H10     19.973098   18.319620   23.317970 H          1 MOL1         0.0752
      19    C7      21.037738   19.229690   21.666456 C.3        1 MOL1        -0.1834
      20    H11     20.907663   20.065863   20.965652 H          1 MOL1         0.0752
      21    H12     21.951773   19.433082   22.241805 H          1 MOL1         0.0752
      22    C8      21.212132   17.918613   20.873753 C.3        1 MOL1        -0.2849
      23    H13     20.322864   17.705701   20.266179 H          1 MOL1         0.0764
      24    H14     22.075757   17.985879   20.199517 H          1 MOL1         0.0764
      25    H15     21.375919   17.070204   21.551200 H          1 MOL1         0.0764
@<TRIPOS>BOND
    1     1     2    1
    2     1     3    2
    3     1     4    1
    4     4     5    1
    5     4     6    1
    6     4     7    1
    7     7     8    1
    8     7     9    1
    9     7    10    1
   10    10    11    1
   11    10    12    1
   12    10    13    1
   13    13    14    1
   14    13    15    1
   15    13    16    1
   16    16    17    1
   17    16    18    1
   18    16    19    1
   19    19    20    1
   20    19    21    1
   21    19    22    1
   22    22    23    1
   23    22    24    1
   24    22    25    1
@<TRIPOS>SUBSTRUCTURE
       1 MOL1            1 RESIDUE      1      MOL     
@<SCITEGIC>MOL_PROPERTY
VM2 Rank
SciTegic.value.IntegerValue
146

@<SCITEGIC>MOL_PROPERTY
Conf_Id
SciTegic.value.IntegerValue
238

@<SCITEGIC>MOL_PROPERTY
Probability
SciTegic.value.DoubleValue
0.00

@<SCITEGIC>MOL_PROPERTY
Sum Probability
SciTegic.value.DoubleValue
99.99

@<SCITEGIC>MOL_PROPERTY
Delta G
SciTegic.value.DoubleValue
6.028

@<SCITEGIC>MOL_PROPERTY
G
SciTegic.value.DoubleValue
-1.935

@<SCITEGIC>MOL_PROPERTY
E
SciTegic.value.DoubleValue
-27.651

@<SCITEGIC>MOL_PROPERTY
-TS
SciTegic.value.DoubleValue
25.716

@<SCITEGIC>MOL_PROPERTY
U+W
SciTegic.value.DoubleValue
-48.219

@<SCITEGIC>MOL_PROPERTY
U
SciTegic.value.DoubleValue
13.047

@<SCITEGIC>MOL_PROPERTY
W
SciTegic.value.DoubleValue
-61.265

@<SCITEGIC>MOL_PROPERTY
W(PB)
SciTegic.value.DoubleValue
-63.654

@<SCITEGIC>MOL_PROPERTY
W(SA)
SciTegic.value.DoubleValue
2.389

@<SCITEGIC>MOL_PROPERTY
Valence
SciTegic.value.DoubleValue
10.098

@<SCITEGIC>MOL_PROPERTY
Coulomb
SciTegic.value.DoubleValue
2.796

@<SCITEGIC>MOL_PROPERTY
VdW
SciTegic.value.DoubleValue
0.153

@<SCITEGIC>MOL_PROPERTY
VdW6
SciTegic.value.DoubleValue
-11.572

@<SCITEGIC>MOL_PROPERTY
VdW12
SciTegic.value.DoubleValue
11.725

@<SCITEGIC>MOL_PROPERTY
Bond
SciTegic.value.DoubleValue
0.240

@<SCITEGIC>MOL_PROPERTY
Angle
SciTegic.value.DoubleValue
3.695

@<SCITEGIC>MOL_PROPERTY
Pdih
SciTegic.value.DoubleValue
6.145

@<SCITEGIC>MOL_PROPERTY
Idih
SciTegic.value.DoubleValue
0.018

@<SCITEGIC>MOL_PROPERTY
Tether
SciTegic.value.DoubleValue
0.000

@<TRIPOS>MOLECULE
guest-8_vm2.mol2 : vm2 ligand conformer 147
          25          24           1
SMALL
USER_CHARGES
 
@<TRIPOS>ATOM
       1    C1      19.529062   19.431259   26.673250 C.2        1 MOL1         0.6168
       2    O1      19.934757   19.234085   27.801773 O.co2      1 MOL1        -0.6703
       3    O2      18.641051   20.216029   26.404602 O.co2      1 MOL1        -0.6703
       4    C2      20.186603   18.668030   25.529368 C.3        1 MOL1        -0.1963
       5    H1      19.415758   18.466080   24.777752 H          1 MOL1         0.0750
       6    H2      20.524289   17.698729   25.914713 H          1 MOL1         0.0750
       7    C3      21.378268   19.437848   24.902536 C.3        1 MOL1        -0.1860
       8    H3      21.040652   20.411133   24.524627 H          1 MOL1         0.0752
       9    H4      22.105998   19.659870   25.695109 H          1 MOL1         0.0752
      10    C4      22.097907   18.651716   23.780316 C.3        1 MOL1        -0.1858
      11    H5      22.496294   17.720303   24.205129 H          1 MOL1         0.0752
      12    H6      22.972824   19.228846   23.451523 H          1 MOL1         0.0752
      13    C5      21.236309   18.299344   22.538886 C.3        1 MOL1        -0.1858
      14    H7      21.865222   17.693870   21.872273 H          1 MOL1         0.0752
      15    H8      20.404775   17.643951   22.821939 H          1 MOL1         0.0752
      16    C6      20.735441   19.524312   21.726554 C.3        1 MOL1        -0.1858
      17    H9      20.738729   19.262258   20.659764 H          1 MOL1         0.0752
      18    H10     21.454286   20.348300   21.830129 H          1 MOL1         0.0752
      19    C7      19.316728   20.030200   22.090592 C.3        1 MOL1        -0.1834
      20    H11     19.246455   20.259445   23.160417 H          1 MOL1         0.0752
      21    H12     19.141375   20.978897   21.565208 H          1 MOL1         0.0752
      22    C8      18.196874   19.041177   21.698124 C.3        1 MOL1        -0.2849
      23    H13     18.262356   18.108470   22.271114 H          1 MOL1         0.0764
      24    H14     17.211181   19.482017   21.895265 H          1 MOL1         0.0764
      25    H15     18.247859   18.793098   20.630058 H          1 MOL1         0.0764
@<TRIPOS>BOND
    1     1     2    1
    2     1     3    2
    3     1     4    1
    4     4     5    1
    5     4     6    1
    6     4     7    1
    7     7     8    1
    8     7     9    1
    9     7    10    1
   10    10    11    1
   11    10    12    1
   12    10    13    1
   13    13    14    1
   14    13    15    1
   15    13    16    1
   16    16    17    1
   17    16    18    1
   18    16    19    1
   19    19    20    1
   20    19    21    1
   21    19    22    1
   22    22    23    1
   23    22    24    1
   24    22    25    1
@<TRIPOS>SUBSTRUCTURE
       1 MOL1            1 RESIDUE      1      MOL     
@<SCITEGIC>MOL_PROPERTY
VM2 Rank
SciTegic.value.IntegerValue
147

@<SCITEGIC>MOL_PROPERTY
Conf_Id
SciTegic.value.IntegerValue
1049

@<SCITEGIC>MOL_PROPERTY
Probability
SciTegic.value.DoubleValue
0.00

@<SCITEGIC>MOL_PROPERTY
Sum Probability
SciTegic.value.DoubleValue
99.99

@<SCITEGIC>MOL_PROPERTY
Delta G
SciTegic.value.DoubleValue
6.256

@<SCITEGIC>MOL_PROPERTY
G
SciTegic.value.DoubleValue
-1.706

@<SCITEGIC>MOL_PROPERTY
E
SciTegic.value.DoubleValue
-27.165

@<SCITEGIC>MOL_PROPERTY
-TS
SciTegic.value.DoubleValue
25.459

@<SCITEGIC>MOL_PROPERTY
U+W
SciTegic.value.DoubleValue
-47.733

@<SCITEGIC>MOL_PROPERTY
U
SciTegic.value.DoubleValue
12.724

@<SCITEGIC>MOL_PROPERTY
W
SciTegic.value.DoubleValue
-60.457

@<SCITEGIC>MOL_PROPERTY
W(PB)
SciTegic.value.DoubleValue
-62.797

@<SCITEGIC>MOL_PROPERTY
W(SA)
SciTegic.value.DoubleValue
2.340

@<SCITEGIC>MOL_PROPERTY
Valence
SciTegic.value.DoubleValue
11.802

@<SCITEGIC>MOL_PROPERTY
Coulomb
SciTegic.value.DoubleValue
0.382

@<SCITEGIC>MOL_PROPERTY
VdW
SciTegic.value.DoubleValue
0.540

@<SCITEGIC>MOL_PROPERTY
VdW6
SciTegic.value.DoubleValue
-11.531

@<SCITEGIC>MOL_PROPERTY
VdW12
SciTegic.value.DoubleValue
12.071

@<SCITEGIC>MOL_PROPERTY
Bond
SciTegic.value.DoubleValue
0.296

@<SCITEGIC>MOL_PROPERTY
Angle
SciTegic.value.DoubleValue
3.954

@<SCITEGIC>MOL_PROPERTY
Pdih
SciTegic.value.DoubleValue
7.551

@<SCITEGIC>MOL_PROPERTY
Idih
SciTegic.value.DoubleValue
0.001

@<SCITEGIC>MOL_PROPERTY
Tether
SciTegic.value.DoubleValue
0.000

@<TRIPOS>MOLECULE
guest-8_vm2.mol2 : vm2 ligand conformer 148
          25          24           1
SMALL
USER_CHARGES
 
@<TRIPOS>ATOM
       1    C1      19.739098   19.655741   26.871126 C.2        1 MOL1         0.6168
       2    O1      19.969617   19.041199   27.893949 O.co2      1 MOL1        -0.6703
       3    O2      18.743853   20.332127   26.701964 O.co2      1 MOL1        -0.6703
       4    C2      20.746213   19.557985   25.730842 C.3        1 MOL1        -0.1963
       5    H1      21.747218   19.468313   26.169091 H          1 MOL1         0.0750
       6    H2      20.716991   20.504331   25.180272 H          1 MOL1         0.0750
       7    C3      20.466072   18.359869   24.786029 C.3        1 MOL1        -0.1860
       8    H3      20.438955   17.442167   25.389501 H          1 MOL1         0.0752
       9    H4      19.466064   18.465735   24.350419 H          1 MOL1         0.0752
      10    C4      21.533950   18.185117   23.676127 C.3        1 MOL1        -0.1858
      11    H5      21.395777   17.211175   23.187425 H          1 MOL1         0.0752
      12    H6      22.520092   18.136382   24.157731 H          1 MOL1         0.0752
      13    C5      21.563533   19.301637   22.597328 C.3        1 MOL1        -0.1858
      14    H7      21.277193   20.271708   23.019165 H          1 MOL1         0.0752
      15    H8      22.606762   19.424190   22.276150 H          1 MOL1         0.0752
      16    C6      20.729725   18.998365   21.324280 C.3        1 MOL1        -0.1858
      17    H9      21.090646   18.061463   20.878723 H          1 MOL1         0.0752
      18    H10     20.932973   19.780783   20.580538 H          1 MOL1         0.0752
      19    C7      19.198825   18.896803   21.523107 C.3        1 MOL1        -0.1834
      20    H11     18.738978   18.642234   20.558418 H          1 MOL1         0.0752
      21    H12     18.959558   18.065075   22.197417 H          1 MOL1         0.0752
      22    C8      18.562114   20.205155   22.041247 C.3        1 MOL1        -0.2849
      23    H13     18.791303   21.044477   21.372102 H          1 MOL1         0.0764
      24    H14     17.470590   20.105236   22.097434 H          1 MOL1         0.0764
      25    H15     18.924592   20.458639   23.045284 H          1 MOL1         0.0764
@<TRIPOS>BOND
    1     1     2    1
    2     1     3    2
    3     1     4    1
    4     4     5    1
    5     4     6    1
    6     4     7    1
    7     7     8    1
    8     7     9    1
    9     7    10    1
   10    10    11    1
   11    10    12    1
   12    10    13    1
   13    13    14    1
   14    13    15    1
   15    13    16    1
   16    16    17    1
   17    16    18    1
   18    16    19    1
   19    19    20    1
   20    19    21    1
   21    19    22    1
   22    22    23    1
   23    22    24    1
   24    22    25    1
@<TRIPOS>SUBSTRUCTURE
       1 MOL1            1 RESIDUE      1      MOL     
@<SCITEGIC>MOL_PROPERTY
VM2 Rank
SciTegic.value.IntegerValue
148

@<SCITEGIC>MOL_PROPERTY
Conf_Id
SciTegic.value.IntegerValue
701

@<SCITEGIC>MOL_PROPERTY
Probability
SciTegic.value.DoubleValue
0.00

@<SCITEGIC>MOL_PROPERTY
Sum Probability
SciTegic.value.DoubleValue
99.99

@<SCITEGIC>MOL_PROPERTY
Delta G
SciTegic.value.DoubleValue
6.278

@<SCITEGIC>MOL_PROPERTY
G
SciTegic.value.DoubleValue
-1.684

@<SCITEGIC>MOL_PROPERTY
E
SciTegic.value.DoubleValue
-27.070

@<SCITEGIC>MOL_PROPERTY
-TS
SciTegic.value.DoubleValue
25.386

@<SCITEGIC>MOL_PROPERTY
U+W
SciTegic.value.DoubleValue
-47.637

@<SCITEGIC>MOL_PROPERTY
U
SciTegic.value.DoubleValue
12.577

@<SCITEGIC>MOL_PROPERTY
W
SciTegic.value.DoubleValue
-60.214

@<SCITEGIC>MOL_PROPERTY
W(PB)
SciTegic.value.DoubleValue
-62.544

@<SCITEGIC>MOL_PROPERTY
W(SA)
SciTegic.value.DoubleValue
2.329

@<SCITEGIC>MOL_PROPERTY
Valence
SciTegic.value.DoubleValue
11.827

@<SCITEGIC>MOL_PROPERTY
Coulomb
SciTegic.value.DoubleValue
0.089

@<SCITEGIC>MOL_PROPERTY
VdW
SciTegic.value.DoubleValue
0.661

@<SCITEGIC>MOL_PROPERTY
VdW6
SciTegic.value.DoubleValue
-11.301

@<SCITEGIC>MOL_PROPERTY
VdW12
SciTegic.value.DoubleValue
11.962

@<SCITEGIC>MOL_PROPERTY
Bond
SciTegic.value.DoubleValue
0.300

@<SCITEGIC>MOL_PROPERTY
Angle
SciTegic.value.DoubleValue
3.988

@<SCITEGIC>MOL_PROPERTY
Pdih
SciTegic.value.DoubleValue
7.539

@<SCITEGIC>MOL_PROPERTY
Idih
SciTegic.value.DoubleValue
0.000

@<SCITEGIC>MOL_PROPERTY
Tether
SciTegic.value.DoubleValue
0.000

@<TRIPOS>MOLECULE
guest-8_vm2.mol2 : vm2 ligand conformer 149
          25          24           1
SMALL
USER_CHARGES
 
@<TRIPOS>ATOM
       1    C1      20.374639   19.440942   27.051018 C.2        1 MOL1         0.6168
       2    O1      21.301329   20.222238   27.140138 O.co2      1 MOL1        -0.6703
       3    O2      19.319600   19.578932   27.638357 O.co2      1 MOL1        -0.6703
       4    C2      20.555863   18.208289   26.169733 C.3        1 MOL1        -0.1963
       5    H1      19.820489   17.452134   26.470025 H          1 MOL1         0.0750
       6    H2      21.546309   17.791610   26.387293 H          1 MOL1         0.0750
       7    C3      20.438128   18.498105   24.650856 C.3        1 MOL1        -0.1860
       8    H3      21.168818   19.271688   24.380333 H          1 MOL1         0.0752
       9    H4      20.706118   17.591678   24.091615 H          1 MOL1         0.0752
      10    C4      19.017061   18.950016   24.242114 C.3        1 MOL1        -0.1858
      11    H5      18.783546   19.910202   24.722473 H          1 MOL1         0.0752
      12    H6      18.287159   18.227224   24.631467 H          1 MOL1         0.0752
      13    C5      18.808472   19.077477   22.712232 C.3        1 MOL1        -0.1858
      14    H7      18.947444   18.099173   22.235812 H          1 MOL1         0.0752
      15    H8      17.755908   19.342593   22.543707 H          1 MOL1         0.0752
      16    C6      19.691056   20.156438   22.029731 C.3        1 MOL1        -0.1858
      17    H9      19.934298   20.942501   22.757571 H          1 MOL1         0.0752
      18    H10     19.103359   20.651745   21.244844 H          1 MOL1         0.0752
      19    C7      20.997243   19.619784   21.392816 C.3        1 MOL1        -0.1834
      20    H11     21.634864   20.474648   21.128967 H          1 MOL1         0.0752
      21    H12     21.565432   19.025143   22.118342 H          1 MOL1         0.0752
      22    C8      20.749609   18.781780   20.119003 C.3        1 MOL1        -0.2849
      23    H13     20.189898   19.359188   19.371778 H          1 MOL1         0.0764
      24    H14     21.703447   18.481066   19.666658 H          1 MOL1         0.0764
      25    H15     20.184053   17.868380   20.339802 H          1 MOL1         0.0764
@<TRIPOS>BOND
    1     1     2    1
    2     1     3    2
    3     1     4    1
    4     4     5    1
    5     4     6    1
    6     4     7    1
    7     7     8    1
    8     7     9    1
    9     7    10    1
   10    10    11    1
   11    10    12    1
   12    10    13    1
   13    13    14    1
   14    13    15    1
   15    13    16    1
   16    16    17    1
   17    16    18    1
   18    16    19    1
   19    19    20    1
   20    19    21    1
   21    19    22    1
   22    22    23    1
   23    22    24    1
   24    22    25    1
@<TRIPOS>SUBSTRUCTURE
       1 MOL1            1 RESIDUE      1      MOL     
@<SCITEGIC>MOL_PROPERTY
VM2 Rank
SciTegic.value.IntegerValue
149

@<SCITEGIC>MOL_PROPERTY
Conf_Id
SciTegic.value.IntegerValue
707

@<SCITEGIC>MOL_PROPERTY
Probability
SciTegic.value.DoubleValue
0.00

@<SCITEGIC>MOL_PROPERTY
Sum Probability
SciTegic.value.DoubleValue
99.99

@<SCITEGIC>MOL_PROPERTY
Delta G
SciTegic.value.DoubleValue
6.290

@<SCITEGIC>MOL_PROPERTY
G
SciTegic.value.DoubleValue
-1.672

@<SCITEGIC>MOL_PROPERTY
E
SciTegic.value.DoubleValue
-26.816

@<SCITEGIC>MOL_PROPERTY
-TS
SciTegic.value.DoubleValue
25.143

@<SCITEGIC>MOL_PROPERTY
U+W
SciTegic.value.DoubleValue
-47.384

@<SCITEGIC>MOL_PROPERTY
U
SciTegic.value.DoubleValue
12.751

@<SCITEGIC>MOL_PROPERTY
W
SciTegic.value.DoubleValue
-60.134

@<SCITEGIC>MOL_PROPERTY
W(PB)
SciTegic.value.DoubleValue
-62.535

@<SCITEGIC>MOL_PROPERTY
W(SA)
SciTegic.value.DoubleValue
2.401

@<SCITEGIC>MOL_PROPERTY
Valence
SciTegic.value.DoubleValue
11.503

@<SCITEGIC>MOL_PROPERTY
Coulomb
SciTegic.value.DoubleValue
0.344

@<SCITEGIC>MOL_PROPERTY
VdW
SciTegic.value.DoubleValue
0.904

@<SCITEGIC>MOL_PROPERTY
VdW6
SciTegic.value.DoubleValue
-10.720

@<SCITEGIC>MOL_PROPERTY
VdW12
SciTegic.value.DoubleValue
11.623

@<SCITEGIC>MOL_PROPERTY
Bond
SciTegic.value.DoubleValue
0.257

@<SCITEGIC>MOL_PROPERTY
Angle
SciTegic.value.DoubleValue
3.380

@<SCITEGIC>MOL_PROPERTY
Pdih
SciTegic.value.DoubleValue
7.866

@<SCITEGIC>MOL_PROPERTY
Idih
SciTegic.value.DoubleValue
0.001

@<SCITEGIC>MOL_PROPERTY
Tether
SciTegic.value.DoubleValue
0.000

@<TRIPOS>MOLECULE
guest-8_vm2.mol2 : vm2 ligand conformer 150
          25          24           1
SMALL
USER_CHARGES
 
@<TRIPOS>ATOM
       1    C1      20.388491   19.412469   27.051545 C.2        1 MOL1         0.6168
       2    O1      21.574635   19.658398   27.150042 O.co2      1 MOL1        -0.6703
       3    O2      19.834836   18.515944   27.657207 O.co2      1 MOL1        -0.6703
       4    C2      19.545820   20.292330   26.132474 C.3        1 MOL1        -0.1963
       5    H1      19.829534   21.333862   26.323923 H          1 MOL1         0.0750
       6    H2      18.492542   20.192124   26.421068 H          1 MOL1         0.0750
       7    C3      19.721569   19.976475   24.624432 C.3        1 MOL1        -0.1860
       8    H3      19.184250   20.731837   24.035453 H          1 MOL1         0.0752
       9    H4      20.785218   20.062959   24.366181 H          1 MOL1         0.0752
      10    C4      19.201181   18.569719   24.248987 C.3        1 MOL1        -0.1858
      11    H5      18.176131   18.455941   24.627281 H          1 MOL1         0.0752
      12    H6      19.803020   17.805840   24.760369 H          1 MOL1         0.0752
      13    C5      19.193663   18.282650   22.726548 C.3        1 MOL1        -0.1858
      14    H7      18.751736   17.287678   22.580573 H          1 MOL1         0.0752
      15    H8      18.518945   18.983671   22.219896 H          1 MOL1         0.0752
      16    C6      20.596993   18.287215   22.063554 C.3        1 MOL1        -0.1858
      17    H9      20.632700   17.496370   21.301942 H          1 MOL1         0.0752
      18    H10     21.354205   18.012747   22.810621 H          1 MOL1         0.0752
      19    C7      20.994308   19.625852   21.392757 C.3        1 MOL1        -0.1834
      20    H11     20.869260   20.461141   22.092388 H          1 MOL1         0.0752
      21    H12     22.064054   19.589305   21.145211 H          1 MOL1         0.0752
      22    C8      20.201504   19.912947   20.098455 C.3        1 MOL1        -0.2849
      23    H13     20.562928   20.834463   19.624078 H          1 MOL1         0.0764
      24    H14     20.318656   19.094373   19.376489 H          1 MOL1         0.0764
      25    H15     19.131077   20.040927   20.300228 H          1 MOL1         0.0764
@<TRIPOS>BOND
    1     1     2    1
    2     1     3    2
    3     1     4    1
    4     4     5    1
    5     4     6    1
    6     4     7    1
    7     7     8    1
    8     7     9    1
    9     7    10    1
   10    10    11    1
   11    10    12    1
   12    10    13    1
   13    13    14    1
   14    13    15    1
   15    13    16    1
   16    16    17    1
   17    16    18    1
   18    16    19    1
   19    19    20    1
   20    19    21    1
   21    19    22    1
   22    22    23    1
   23    22    24    1
   24    22    25    1
@<TRIPOS>SUBSTRUCTURE
       1 MOL1            1 RESIDUE      1      MOL     
@<SCITEGIC>MOL_PROPERTY
VM2 Rank
SciTegic.value.IntegerValue
150

@<SCITEGIC>MOL_PROPERTY
Conf_Id
SciTegic.value.IntegerValue
109

@<SCITEGIC>MOL_PROPERTY
Probability
SciTegic.value.DoubleValue
0.00

@<SCITEGIC>MOL_PROPERTY
Sum Probability
SciTegic.value.DoubleValue
99.99

@<SCITEGIC>MOL_PROPERTY
Delta G
SciTegic.value.DoubleValue
6.291

@<SCITEGIC>MOL_PROPERTY
G
SciTegic.value.DoubleValue
-1.671

@<SCITEGIC>MOL_PROPERTY
E
SciTegic.value.DoubleValue
-26.815

@<SCITEGIC>MOL_PROPERTY
-TS
SciTegic.value.DoubleValue
25.144

@<SCITEGIC>MOL_PROPERTY
U+W
SciTegic.value.DoubleValue
-47.383

@<SCITEGIC>MOL_PROPERTY
U
SciTegic.value.DoubleValue
12.751

@<SCITEGIC>MOL_PROPERTY
W
SciTegic.value.DoubleValue
-60.134

@<SCITEGIC>MOL_PROPERTY
W(PB)
SciTegic.value.DoubleValue
-62.544

@<SCITEGIC>MOL_PROPERTY
W(SA)
SciTegic.value.DoubleValue
2.410

@<SCITEGIC>MOL_PROPERTY
Valence
SciTegic.value.DoubleValue
11.503

@<SCITEGIC>MOL_PROPERTY
Coulomb
SciTegic.value.DoubleValue
0.345

@<SCITEGIC>MOL_PROPERTY
VdW
SciTegic.value.DoubleValue
0.904

@<SCITEGIC>MOL_PROPERTY
VdW6
SciTegic.value.DoubleValue
-10.720

@<SCITEGIC>MOL_PROPERTY
VdW12
SciTegic.value.DoubleValue
11.624

@<SCITEGIC>MOL_PROPERTY
Bond
SciTegic.value.DoubleValue
0.257

@<SCITEGIC>MOL_PROPERTY
Angle
SciTegic.value.DoubleValue
3.379

@<SCITEGIC>MOL_PROPERTY
Pdih
SciTegic.value.DoubleValue
7.867

@<SCITEGIC>MOL_PROPERTY
Idih
SciTegic.value.DoubleValue
0.001

@<SCITEGIC>MOL_PROPERTY
Tether
SciTegic.value.DoubleValue
0.000

@<TRIPOS>MOLECULE
guest-8_vm2.mol2 : vm2 ligand conformer 151
          25          24           1
SMALL
USER_CHARGES
 
@<TRIPOS>ATOM
       1    C1      20.515537   19.705638   26.862305 C.2        1 MOL1         0.6168
       2    O1      21.412188   20.503221   26.671254 O.co2      1 MOL1        -0.6703
       3    O2      20.388752   19.068456   27.889385 O.co2      1 MOL1        -0.6703
       4    C2      19.503357   19.478193   25.745232 C.3        1 MOL1        -0.1963
       5    H1      19.398607   20.419720   25.195587 H          1 MOL1         0.0750
       6    H2      18.532365   19.261759   26.206152 H          1 MOL1         0.0750
       7    C3      19.912813   18.324453   24.792415 C.3        1 MOL1        -0.1860
       8    H3      20.880710   18.556908   24.334023 H          1 MOL1         0.0752
       9    H4      20.071168   17.418670   25.393723 H          1 MOL1         0.0752
      10    C4      18.850817   18.012713   23.707167 C.3        1 MOL1        -0.1858
      11    H5      17.890409   17.838755   24.211293 H          1 MOL1         0.0752
      12    H6      19.101319   17.063779   23.213956 H          1 MOL1         0.0752
      13    C5      18.653601   19.114652   22.631003 C.3        1 MOL1        -0.1858
      14    H7      17.596114   19.102203   22.334243 H          1 MOL1         0.0752
      15    H8      18.823125   20.114021   23.047535 H          1 MOL1         0.0752
      16    C6      19.489678   18.918667   21.338557 C.3        1 MOL1        -0.1858
      17    H9      19.170860   19.667551   20.600882 H          1 MOL1         0.0752
      18    H10     19.241368   17.942633   20.900074 H          1 MOL1         0.0752
      19    C7      21.025175   19.014071   21.501788 C.3        1 MOL1        -0.1834
      20    H11     21.384390   18.220841   22.169224 H          1 MOL1         0.0752
      21    H12     21.491388   18.818905   20.526368 H          1 MOL1         0.0752
      22    C8      21.501081   20.393937   22.006894 C.3        1 MOL1        -0.2849
      23    H13     21.132409   20.600571   23.019375 H          1 MOL1         0.0764
      24    H14     22.597424   20.434549   22.037733 H          1 MOL1         0.0764
      25    H15     21.151034   21.195977   21.344368 H          1 MOL1         0.0764
@<TRIPOS>BOND
    1     1     2    1
    2     1     3    2
    3     1     4    1
    4     4     5    1
    5     4     6    1
    6     4     7    1
    7     7     8    1
    8     7     9    1
    9     7    10    1
   10    10    11    1
   11    10    12    1
   12    10    13    1
   13    13    14    1
   14    13    15    1
   15    13    16    1
   16    16    17    1
   17    16    18    1
   18    16    19    1
   19    19    20    1
   20    19    21    1
   21    19    22    1
   22    22    23    1
   23    22    24    1
   24    22    25    1
@<TRIPOS>SUBSTRUCTURE
       1 MOL1            1 RESIDUE      1      MOL     
@<SCITEGIC>MOL_PROPERTY
VM2 Rank
SciTegic.value.IntegerValue
151

@<SCITEGIC>MOL_PROPERTY
Conf_Id
SciTegic.value.IntegerValue
704

@<SCITEGIC>MOL_PROPERTY
Probability
SciTegic.value.DoubleValue
0.00

@<SCITEGIC>MOL_PROPERTY
Sum Probability
SciTegic.value.DoubleValue
99.99

@<SCITEGIC>MOL_PROPERTY
Delta G
SciTegic.value.DoubleValue
6.324

@<SCITEGIC>MOL_PROPERTY
G
SciTegic.value.DoubleValue
-1.638

@<SCITEGIC>MOL_PROPERTY
E
SciTegic.value.DoubleValue
-27.023

@<SCITEGIC>MOL_PROPERTY
-TS
SciTegic.value.DoubleValue
25.385

@<SCITEGIC>MOL_PROPERTY
U+W
SciTegic.value.DoubleValue
-47.591

@<SCITEGIC>MOL_PROPERTY
U
SciTegic.value.DoubleValue
12.576

@<SCITEGIC>MOL_PROPERTY
W
SciTegic.value.DoubleValue
-60.167

@<SCITEGIC>MOL_PROPERTY
W(PB)
SciTegic.value.DoubleValue
-62.530

@<SCITEGIC>MOL_PROPERTY
W(SA)
SciTegic.value.DoubleValue
2.363

@<SCITEGIC>MOL_PROPERTY
Valence
SciTegic.value.DoubleValue
11.827

@<SCITEGIC>MOL_PROPERTY
Coulomb
SciTegic.value.DoubleValue
0.088

@<SCITEGIC>MOL_PROPERTY
VdW
SciTegic.value.DoubleValue
0.661

@<SCITEGIC>MOL_PROPERTY
VdW6
SciTegic.value.DoubleValue
-11.300

@<SCITEGIC>MOL_PROPERTY
VdW12
SciTegic.value.DoubleValue
11.961

@<SCITEGIC>MOL_PROPERTY
Bond
SciTegic.value.DoubleValue
0.300

@<SCITEGIC>MOL_PROPERTY
Angle
SciTegic.value.DoubleValue
3.988

@<SCITEGIC>MOL_PROPERTY
Pdih
SciTegic.value.DoubleValue
7.540

@<SCITEGIC>MOL_PROPERTY
Idih
SciTegic.value.DoubleValue
0.000

@<SCITEGIC>MOL_PROPERTY
Tether
SciTegic.value.DoubleValue
0.000

@<TRIPOS>MOLECULE
guest-8_vm2.mol2 : vm2 ligand conformer 152
          25          24           1
SMALL
USER_CHARGES
 
@<TRIPOS>ATOM
       1    C1      20.748060   19.509473   26.659205 C.2        1 MOL1         0.6168
       2    O1      21.522372   20.400600   26.371225 O.co2      1 MOL1        -0.6703
       3    O2      20.396745   19.264133   27.796490 O.co2      1 MOL1        -0.6703
       4    C2      20.167184   18.666683   25.529763 C.3        1 MOL1        -0.1963
       5    H1      19.964926   17.662844   25.921515 H          1 MOL1         0.0750
       6    H2      20.940004   18.563527   24.760334 H          1 MOL1         0.0750
       7    C3      18.872910   19.277090   24.931550 C.3        1 MOL1        -0.1860
       8    H3      18.141179   19.405585   25.740942 H          1 MOL1         0.0752
       9    H4      19.074736   20.284937   24.547364 H          1 MOL1         0.0752
      10    C4      18.233970   18.403793   23.825039 C.3        1 MOL1        -0.1858
      11    H5      17.285115   18.863884   23.517381 H          1 MOL1         0.0752
      12    H6      17.967811   17.429708   24.257504 H          1 MOL1         0.0752
      13    C5      19.104686   18.162684   22.563538 C.3        1 MOL1        -0.1858
      14    H7      20.019437   17.619288   22.826336 H          1 MOL1         0.0752
      15    H8      18.543086   17.480920   21.910617 H          1 MOL1         0.0752
      16    C6      19.426114   19.440507   21.741863 C.3        1 MOL1        -0.1858
      17    H9      18.610603   20.166159   21.863493 H          1 MOL1         0.0752
      18    H10     19.431509   19.178813   20.674992 H          1 MOL1         0.0752
      19    C7      20.776746   20.123756   22.073757 C.3        1 MOL1        -0.1834
      20    H11     20.817316   21.086465   21.546167 H          1 MOL1         0.0752
      21    H12     20.842067   20.361327   23.142082 H          1 MOL1         0.0752
      22    C8      22.004212   19.285282   21.653569 C.3        1 MOL1        -0.2849
      23    H13     21.960441   19.031480   20.586529 H          1 MOL1         0.0764
      24    H14     22.929913   19.848541   21.828534 H          1 MOL1         0.0764
      25    H15     22.071653   18.352510   22.226228 H          1 MOL1         0.0764
@<TRIPOS>BOND
    1     1     2    1
    2     1     3    2
    3     1     4    1
    4     4     5    1
    5     4     6    1
    6     4     7    1
    7     7     8    1
    8     7     9    1
    9     7    10    1
   10    10    11    1
   11    10    12    1
   12    10    13    1
   13    13    14    1
   14    13    15    1
   15    13    16    1
   16    16    17    1
   17    16    18    1
   18    16    19    1
   19    19    20    1
   20    19    21    1
   21    19    22    1
   22    22    23    1
   23    22    24    1
   24    22    25    1
@<TRIPOS>SUBSTRUCTURE
       1 MOL1            1 RESIDUE      1      MOL     
@<SCITEGIC>MOL_PROPERTY
VM2 Rank
SciTegic.value.IntegerValue
152

@<SCITEGIC>MOL_PROPERTY
Conf_Id
SciTegic.value.IntegerValue
974

@<SCITEGIC>MOL_PROPERTY
Probability
SciTegic.value.DoubleValue
0.00

@<SCITEGIC>MOL_PROPERTY
Sum Probability
SciTegic.value.DoubleValue
99.99

@<SCITEGIC>MOL_PROPERTY
Delta G
SciTegic.value.DoubleValue
6.329

@<SCITEGIC>MOL_PROPERTY
G
SciTegic.value.DoubleValue
-1.634

@<SCITEGIC>MOL_PROPERTY
E
SciTegic.value.DoubleValue
-27.092

@<SCITEGIC>MOL_PROPERTY
-TS
SciTegic.value.DoubleValue
25.458

@<SCITEGIC>MOL_PROPERTY
U+W
SciTegic.value.DoubleValue
-47.660

@<SCITEGIC>MOL_PROPERTY
U
SciTegic.value.DoubleValue
12.724

@<SCITEGIC>MOL_PROPERTY
W
SciTegic.value.DoubleValue
-60.383

@<SCITEGIC>MOL_PROPERTY
W(PB)
SciTegic.value.DoubleValue
-62.752

@<SCITEGIC>MOL_PROPERTY
W(SA)
SciTegic.value.DoubleValue
2.369

@<SCITEGIC>MOL_PROPERTY
Valence
SciTegic.value.DoubleValue
11.802

@<SCITEGIC>MOL_PROPERTY
Coulomb
SciTegic.value.DoubleValue
0.382

@<SCITEGIC>MOL_PROPERTY
VdW
SciTegic.value.DoubleValue
0.540

@<SCITEGIC>MOL_PROPERTY
VdW6
SciTegic.value.DoubleValue
-11.531

@<SCITEGIC>MOL_PROPERTY
VdW12
SciTegic.value.DoubleValue
12.070

@<SCITEGIC>MOL_PROPERTY
Bond
SciTegic.value.DoubleValue
0.296

@<SCITEGIC>MOL_PROPERTY
Angle
SciTegic.value.DoubleValue
3.953

@<SCITEGIC>MOL_PROPERTY
Pdih
SciTegic.value.DoubleValue
7.553

@<SCITEGIC>MOL_PROPERTY
Idih
SciTegic.value.DoubleValue
0.001

@<SCITEGIC>MOL_PROPERTY
Tether
SciTegic.value.DoubleValue
0.000

@<TRIPOS>MOLECULE
guest-8_vm2.mol2 : vm2 ligand conformer 153
          25          24           1
SMALL
USER_CHARGES
 
@<TRIPOS>ATOM
       1    C1      19.874993   19.234303   27.149256 C.2        1 MOL1         0.6168
       2    O1      20.730708   19.722359   27.861098 O.co2      1 MOL1        -0.6703
       3    O2      18.696149   19.520902   27.221635 O.co2      1 MOL1        -0.6703
       4    C2      20.303873   18.189918   26.122407 C.3        1 MOL1        -0.1963
       5    H1      19.420855   17.615516   25.817166 H          1 MOL1         0.0750
       6    H2      20.978119   17.489865   26.629597 H          1 MOL1         0.0750
       7    C3      21.013646   18.782094   24.876987 C.3        1 MOL1        -0.1860
       8    H3      21.875355   19.381635   25.201507 H          1 MOL1         0.0752
       9    H4      21.414066   17.955176   24.277556 H          1 MOL1         0.0752
      10    C4      20.067644   19.650231   24.011914 C.3        1 MOL1        -0.1858
      11    H5      19.672165   20.467853   24.629856 H          1 MOL1         0.0752
      12    H6      19.201214   19.054180   23.701309 H          1 MOL1         0.0752
      13    C5      20.768296   20.270011   22.776435 C.3        1 MOL1        -0.1858
      14    H7      20.147088   21.081160   22.373078 H          1 MOL1         0.0752
      15    H8      21.698732   20.748736   23.110873 H          1 MOL1         0.0752
      16    C6      21.098784   19.263452   21.641960 C.3        1 MOL1        -0.1858
      17    H9      21.268212   18.258033   22.046513 H          1 MOL1         0.0752
      18    H10     22.051866   19.565051   21.186646 H          1 MOL1         0.0752
      19    C7      20.041944   19.200279   20.511622 C.3        1 MOL1        -0.1834
      20    H11     19.937150   20.191164   20.048623 H          1 MOL1         0.0752
      21    H12     20.413370   18.530738   19.723652 H          1 MOL1         0.0752
      22    C8      18.656964   18.700450   20.972686 C.3        1 MOL1        -0.2849
      23    H13     17.991170   18.564268   20.110772 H          1 MOL1         0.0764
      24    H14     18.739248   17.737483   21.493226 H          1 MOL1         0.0764
      25    H15     18.180628   19.422029   21.647981 H          1 MOL1         0.0764
@<TRIPOS>BOND
    1     1     2    1
    2     1     3    2
    3     1     4    1
    4     4     5    1
    5     4     6    1
    6     4     7    1
    7     7     8    1
    8     7     9    1
    9     7    10    1
   10    10    11    1
   11    10    12    1
   12    10    13    1
   13    13    14    1
   14    13    15    1
   15    13    16    1
   16    16    17    1
   17    16    18    1
   18    16    19    1
   19    19    20    1
   20    19    21    1
   21    19    22    1
   22    22    23    1
   23    22    24    1
   24    22    25    1
@<TRIPOS>SUBSTRUCTURE
       1 MOL1            1 RESIDUE      1      MOL     
@<SCITEGIC>MOL_PROPERTY
VM2 Rank
SciTegic.value.IntegerValue
153

@<SCITEGIC>MOL_PROPERTY
Conf_Id
SciTegic.value.IntegerValue
385

@<SCITEGIC>MOL_PROPERTY
Probability
SciTegic.value.DoubleValue
0.00

@<SCITEGIC>MOL_PROPERTY
Sum Probability
SciTegic.value.DoubleValue
99.99

@<SCITEGIC>MOL_PROPERTY
Delta G
SciTegic.value.DoubleValue
6.389

@<SCITEGIC>MOL_PROPERTY
G
SciTegic.value.DoubleValue
-1.574

@<SCITEGIC>MOL_PROPERTY
E
SciTegic.value.DoubleValue
-26.710

@<SCITEGIC>MOL_PROPERTY
-TS
SciTegic.value.DoubleValue
25.136

@<SCITEGIC>MOL_PROPERTY
U+W
SciTegic.value.DoubleValue
-47.278

@<SCITEGIC>MOL_PROPERTY
U
SciTegic.value.DoubleValue
12.718

@<SCITEGIC>MOL_PROPERTY
W
SciTegic.value.DoubleValue
-59.995

@<SCITEGIC>MOL_PROPERTY
W(PB)
SciTegic.value.DoubleValue
-62.409

@<SCITEGIC>MOL_PROPERTY
W(SA)
SciTegic.value.DoubleValue
2.414

@<SCITEGIC>MOL_PROPERTY
Valence
SciTegic.value.DoubleValue
11.548

@<SCITEGIC>MOL_PROPERTY
Coulomb
SciTegic.value.DoubleValue
0.194

@<SCITEGIC>MOL_PROPERTY
VdW
SciTegic.value.DoubleValue
0.975

@<SCITEGIC>MOL_PROPERTY
VdW6
SciTegic.value.DoubleValue
-10.624

@<SCITEGIC>MOL_PROPERTY
VdW12
SciTegic.value.DoubleValue
11.599

@<SCITEGIC>MOL_PROPERTY
Bond
SciTegic.value.DoubleValue
0.265

@<SCITEGIC>MOL_PROPERTY
Angle
SciTegic.value.DoubleValue
3.381

@<SCITEGIC>MOL_PROPERTY
Pdih
SciTegic.value.DoubleValue
7.902

@<SCITEGIC>MOL_PROPERTY
Idih
SciTegic.value.DoubleValue
0.000

@<SCITEGIC>MOL_PROPERTY
Tether
SciTegic.value.DoubleValue
0.000

@<TRIPOS>MOLECULE
guest-8_vm2.mol2 : vm2 ligand conformer 154
          25          24           1
SMALL
USER_CHARGES
 
@<TRIPOS>ATOM
       1    C1      19.777808   19.543528   26.926372 C.2        1 MOL1         0.6168
       2    O1      20.273129   19.190799   27.978823 O.co2      1 MOL1        -0.6703
       3    O2      18.584783   19.502641   26.698211 O.co2      1 MOL1        -0.6703
       4    C2      20.704327   20.089199   25.843046 C.3        1 MOL1        -0.1963
       5    H1      21.366789   20.819718   26.321735 H          1 MOL1         0.0750
       6    H2      20.098127   20.642288   25.118512 H          1 MOL1         0.0750
       7    C3      21.561767   19.000121   25.140336 C.3        1 MOL1        -0.1860
       8    H3      22.344240   19.475523   24.533692 H          1 MOL1         0.0752
       9    H4      22.088687   18.428635   25.917102 H          1 MOL1         0.0752
      10    C4      20.742955   18.016288   24.264274 C.3        1 MOL1        -0.1858
      11    H5      19.719282   17.917053   24.650359 H          1 MOL1         0.0752
      12    H6      21.193687   17.019022   24.359419 H          1 MOL1         0.0752
      13    C5      20.705487   18.368282   22.755672 C.3        1 MOL1        -0.1858
      14    H7      21.728139   18.368193   22.354836 H          1 MOL1         0.0752
      15    H8      20.171222   17.562313   22.237343 H          1 MOL1         0.0752
      16    C6      20.029246   19.723282   22.437411 C.3        1 MOL1        -0.1858
      17    H9      20.612236   20.530576   22.898066 H          1 MOL1         0.0752
      18    H10     19.028885   19.755798   22.890375 H          1 MOL1         0.0752
      19    C7      19.924265   20.019270   20.922854 C.3        1 MOL1        -0.1834
      20    H11     19.583158   21.055356   20.791022 H          1 MOL1         0.0752
      21    H12     20.920250   19.960107   20.462664 H          1 MOL1         0.0752
      22    C8      18.949232   19.080589   20.179002 C.3        1 MOL1        -0.2849
      23    H13     19.310400   18.044854   20.176669 H          1 MOL1         0.0764
      24    H14     17.955156   19.098107   20.644426 H          1 MOL1         0.0764
      25    H15     18.837797   19.394663   19.133142 H          1 MOL1         0.0764
@<TRIPOS>BOND
    1     1     2    1
    2     1     3    2
    3     1     4    1
    4     4     5    1
    5     4     6    1
    6     4     7    1
    7     7     8    1
    8     7     9    1
    9     7    10    1
   10    10    11    1
   11    10    12    1
   12    10    13    1
   13    13    14    1
   14    13    15    1
   15    13    16    1
   16    16    17    1
   17    16    18    1
   18    16    19    1
   19    19    20    1
   20    19    21    1
   21    19    22    1
   22    22    23    1
   23    22    24    1
   24    22    25    1
@<TRIPOS>SUBSTRUCTURE
       1 MOL1            1 RESIDUE      1      MOL     
@<SCITEGIC>MOL_PROPERTY
VM2 Rank
SciTegic.value.IntegerValue
154

@<SCITEGIC>MOL_PROPERTY
Conf_Id
SciTegic.value.IntegerValue
552

@<SCITEGIC>MOL_PROPERTY
Probability
SciTegic.value.DoubleValue
0.00

@<SCITEGIC>MOL_PROPERTY
Sum Probability
SciTegic.value.DoubleValue
99.99

@<SCITEGIC>MOL_PROPERTY
Delta G
SciTegic.value.DoubleValue
6.394

@<SCITEGIC>MOL_PROPERTY
G
SciTegic.value.DoubleValue
-1.568

@<SCITEGIC>MOL_PROPERTY
E
SciTegic.value.DoubleValue
-26.775

@<SCITEGIC>MOL_PROPERTY
-TS
SciTegic.value.DoubleValue
25.207

@<SCITEGIC>MOL_PROPERTY
U+W
SciTegic.value.DoubleValue
-47.343

@<SCITEGIC>MOL_PROPERTY
U
SciTegic.value.DoubleValue
12.779

@<SCITEGIC>MOL_PROPERTY
W
SciTegic.value.DoubleValue
-60.122

@<SCITEGIC>MOL_PROPERTY
W(PB)
SciTegic.value.DoubleValue
-62.528

@<SCITEGIC>MOL_PROPERTY
W(SA)
SciTegic.value.DoubleValue
2.405

@<SCITEGIC>MOL_PROPERTY
Valence
SciTegic.value.DoubleValue
11.506

@<SCITEGIC>MOL_PROPERTY
Coulomb
SciTegic.value.DoubleValue
0.275

@<SCITEGIC>MOL_PROPERTY
VdW
SciTegic.value.DoubleValue
0.999

@<SCITEGIC>MOL_PROPERTY
VdW6
SciTegic.value.DoubleValue
-10.780

@<SCITEGIC>MOL_PROPERTY
VdW12
SciTegic.value.DoubleValue
11.778

@<SCITEGIC>MOL_PROPERTY
Bond
SciTegic.value.DoubleValue
0.274

@<SCITEGIC>MOL_PROPERTY
Angle
SciTegic.value.DoubleValue
3.484

@<SCITEGIC>MOL_PROPERTY
Pdih
SciTegic.value.DoubleValue
7.747

@<SCITEGIC>MOL_PROPERTY
Idih
SciTegic.value.DoubleValue
0.001

@<SCITEGIC>MOL_PROPERTY
Tether
SciTegic.value.DoubleValue
0.000

@<TRIPOS>MOLECULE
guest-8_vm2.mol2 : vm2 ligand conformer 155
          25          24           1
SMALL
USER_CHARGES
 
@<TRIPOS>ATOM
       1    C1      19.866651   19.298440   27.148197 C.2        1 MOL1         0.6168
       2    O1      20.814632   19.062908   27.871399 O.co2      1 MOL1        -0.6703
       3    O2      18.797079   18.727758   27.234153 O.co2      1 MOL1        -0.6703
       4    C2      20.024116   20.384181   26.087315 C.3        1 MOL1        -0.1963
       5    H1      20.499083   21.246577   26.569605 H          1 MOL1         0.0750
       6    H2      19.026522   20.708823   25.767556 H          1 MOL1         0.0750
       7    C3      20.864908   19.950132   24.858416 C.3        1 MOL1        -0.1860
       8    H3      21.047476   20.831758   24.231638 H          1 MOL1         0.0752
       9    H4      21.848150   19.596551   25.198299 H          1 MOL1         0.0752
      10    C4      20.170621   18.845560   24.024861 C.3        1 MOL1        -0.1858
      11    H5      19.183533   19.194914   23.699182 H          1 MOL1         0.0752
      12    H6      19.990647   17.974654   24.669760 H          1 MOL1         0.0752
      13    C5      21.009368   18.383101   22.806633 C.3        1 MOL1        -0.1858
      14    H7      22.028930   18.164314   23.152123 H          1 MOL1         0.0752
      15    H8      20.613498   17.429594   22.431574 H          1 MOL1         0.0752
      16    C6      21.080730   19.404169   21.639698 C.3        1 MOL1        -0.1858
      17    H9      22.080823   19.337660   21.190223 H          1 MOL1         0.0752
      18    H10     20.990351   20.432117   22.011710 H          1 MOL1         0.0752
      19    C7      20.046432   19.164005   20.512263 C.3        1 MOL1        -0.1834
      20    H11     20.240664   19.880320   19.702135 H          1 MOL1         0.0752
      21    H12     20.195999   18.164560   20.081055 H          1 MOL1         0.0752
      22    C8      18.578462   19.313746   20.963064 C.3        1 MOL1        -0.2849
      23    H13     18.296228   18.517190   21.662664 H          1 MOL1         0.0764
      24    H14     18.413902   20.282343   21.452732 H          1 MOL1         0.0764
      25    H15     17.903218   19.250950   20.100033 H          1 MOL1         0.0764
@<TRIPOS>BOND
    1     1     2    1
    2     1     3    2
    3     1     4    1
    4     4     5    1
    5     4     6    1
    6     4     7    1
    7     7     8    1
    8     7     9    1
    9     7    10    1
   10    10    11    1
   11    10    12    1
   12    10    13    1
   13    13    14    1
   14    13    15    1
   15    13    16    1
   16    16    17    1
   17    16    18    1
   18    16    19    1
   19    19    20    1
   20    19    21    1
   21    19    22    1
   22    22    23    1
   23    22    24    1
   24    22    25    1
@<TRIPOS>SUBSTRUCTURE
       1 MOL1            1 RESIDUE      1      MOL     
@<SCITEGIC>MOL_PROPERTY
VM2 Rank
SciTegic.value.IntegerValue
155

@<SCITEGIC>MOL_PROPERTY
Conf_Id
SciTegic.value.IntegerValue
81

@<SCITEGIC>MOL_PROPERTY
Probability
SciTegic.value.DoubleValue
0.00

@<SCITEGIC>MOL_PROPERTY
Sum Probability
SciTegic.value.DoubleValue
99.99

@<SCITEGIC>MOL_PROPERTY
Delta G
SciTegic.value.DoubleValue
6.404

@<SCITEGIC>MOL_PROPERTY
G
SciTegic.value.DoubleValue
-1.558

@<SCITEGIC>MOL_PROPERTY
E
SciTegic.value.DoubleValue
-26.694

@<SCITEGIC>MOL_PROPERTY
-TS
SciTegic.value.DoubleValue
25.136

@<SCITEGIC>MOL_PROPERTY
U+W
SciTegic.value.DoubleValue
-47.262

@<SCITEGIC>MOL_PROPERTY
U
SciTegic.value.DoubleValue
12.718

@<SCITEGIC>MOL_PROPERTY
W
SciTegic.value.DoubleValue
-59.980

@<SCITEGIC>MOL_PROPERTY
W(PB)
SciTegic.value.DoubleValue
-62.377

@<SCITEGIC>MOL_PROPERTY
W(SA)
SciTegic.value.DoubleValue
2.397

@<SCITEGIC>MOL_PROPERTY
Valence
SciTegic.value.DoubleValue
11.548

@<SCITEGIC>MOL_PROPERTY
Coulomb
SciTegic.value.DoubleValue
0.195

@<SCITEGIC>MOL_PROPERTY
VdW
SciTegic.value.DoubleValue
0.975

@<SCITEGIC>MOL_PROPERTY
VdW6
SciTegic.value.DoubleValue
-10.625

@<SCITEGIC>MOL_PROPERTY
VdW12
SciTegic.value.DoubleValue
11.599

@<SCITEGIC>MOL_PROPERTY
Bond
SciTegic.value.DoubleValue
0.265

@<SCITEGIC>MOL_PROPERTY
Angle
SciTegic.value.DoubleValue
3.380

@<SCITEGIC>MOL_PROPERTY
Pdih
SciTegic.value.DoubleValue
7.902

@<SCITEGIC>MOL_PROPERTY
Idih
SciTegic.value.DoubleValue
0.001

@<SCITEGIC>MOL_PROPERTY
Tether
SciTegic.value.DoubleValue
0.000

@<TRIPOS>MOLECULE
guest-8_vm2.mol2 : vm2 ligand conformer 156
          25          24           1
SMALL
USER_CHARGES
 
@<TRIPOS>ATOM
       1    C1      20.290116   19.812197   26.397104 C.2        1 MOL1         0.6168
       2    O1      21.292187   20.453565   26.147673 O.co2      1 MOL1        -0.6703
       3    O2      19.250481   20.313265   26.778795 O.co2      1 MOL1        -0.6703
       4    C2      20.375670   18.288754   26.333249 C.3        1 MOL1        -0.1963
       5    H1      19.451816   17.862258   26.742131 H          1 MOL1         0.0750
       6    H2      21.183430   17.996753   27.014304 H          1 MOL1         0.0750
       7    C3      20.665925   17.699137   24.924377 C.3        1 MOL1        -0.1860
       8    H3      21.458437   18.275957   24.429269 H          1 MOL1         0.0752
       9    H4      21.076349   16.689710   25.061338 H          1 MOL1         0.0752
      10    C4      19.422334   17.575226   24.005897 C.3        1 MOL1        -0.1858
      11    H5      18.658953   16.976890   24.521362 H          1 MOL1         0.0752
      12    H6      19.698744   16.993464   23.116896 H          1 MOL1         0.0752
      13    C5      18.781155   18.912431   23.552717 C.3        1 MOL1        -0.1858
      14    H7      17.921451   18.685426   22.907992 H          1 MOL1         0.0752
      15    H8      18.364602   19.431020   24.425354 H          1 MOL1         0.0752
      16    C6      19.726666   19.878691   22.795388 C.3        1 MOL1        -0.1858
      17    H9      20.546109   20.195340   23.453872 H          1 MOL1         0.0752
      18    H10     19.164953   20.790710   22.552388 H          1 MOL1         0.0752
      19    C7      20.304606   19.282006   21.492288 C.3        1 MOL1        -0.1834
      20    H11     20.934898   18.413326   21.724092 H          1 MOL1         0.0752
      21    H12     19.485701   18.923933   20.853413 H          1 MOL1         0.0752
      22    C8      21.143859   20.318728   20.718513 C.3        1 MOL1        -0.2849
      23    H13     21.551281   19.878371   19.799252 H          1 MOL1         0.0764
      24    H14     20.534042   21.187178   20.437152 H          1 MOL1         0.0764
      25    H15     21.985988   20.673627   21.327035 H          1 MOL1         0.0764
@<TRIPOS>BOND
    1     1     2    1
    2     1     3    2
    3     1     4    1
    4     4     5    1
    5     4     6    1
    6     4     7    1
    7     7     8    1
    8     7     9    1
    9     7    10    1
   10    10    11    1
   11    10    12    1
   12    10    13    1
   13    13    14    1
   14    13    15    1
   15    13    16    1
   16    16    17    1
   17    16    18    1
   18    16    19    1
   19    19    20    1
   20    19    21    1
   21    19    22    1
   22    22    23    1
   23    22    24    1
   24    22    25    1
@<TRIPOS>SUBSTRUCTURE
       1 MOL1            1 RESIDUE      1      MOL     
@<SCITEGIC>MOL_PROPERTY
VM2 Rank
SciTegic.value.IntegerValue
156

@<SCITEGIC>MOL_PROPERTY
Conf_Id
SciTegic.value.IntegerValue
253

@<SCITEGIC>MOL_PROPERTY
Probability
SciTegic.value.DoubleValue
0.00

@<SCITEGIC>MOL_PROPERTY
Sum Probability
SciTegic.value.DoubleValue
99.99

@<SCITEGIC>MOL_PROPERTY
Delta G
SciTegic.value.DoubleValue
6.407

@<SCITEGIC>MOL_PROPERTY
G
SciTegic.value.DoubleValue
-1.555

@<SCITEGIC>MOL_PROPERTY
E
SciTegic.value.DoubleValue
-27.545

@<SCITEGIC>MOL_PROPERTY
-TS
SciTegic.value.DoubleValue
25.989

@<SCITEGIC>MOL_PROPERTY
U+W
SciTegic.value.DoubleValue
-48.112

@<SCITEGIC>MOL_PROPERTY
U
SciTegic.value.DoubleValue
13.027

@<SCITEGIC>MOL_PROPERTY
W
SciTegic.value.DoubleValue
-61.139

@<SCITEGIC>MOL_PROPERTY
W(PB)
SciTegic.value.DoubleValue
-63.503

@<SCITEGIC>MOL_PROPERTY
W(SA)
SciTegic.value.DoubleValue
2.364

@<SCITEGIC>MOL_PROPERTY
Valence
SciTegic.value.DoubleValue
10.559

@<SCITEGIC>MOL_PROPERTY
Coulomb
SciTegic.value.DoubleValue
2.239

@<SCITEGIC>MOL_PROPERTY
VdW
SciTegic.value.DoubleValue
0.229

@<SCITEGIC>MOL_PROPERTY
VdW6
SciTegic.value.DoubleValue
-12.344

@<SCITEGIC>MOL_PROPERTY
VdW12
SciTegic.value.DoubleValue
12.573

@<SCITEGIC>MOL_PROPERTY
Bond
SciTegic.value.DoubleValue
0.282

@<SCITEGIC>MOL_PROPERTY
Angle
SciTegic.value.DoubleValue
4.052

@<SCITEGIC>MOL_PROPERTY
Pdih
SciTegic.value.DoubleValue
6.208

@<SCITEGIC>MOL_PROPERTY
Idih
SciTegic.value.DoubleValue
0.016

@<SCITEGIC>MOL_PROPERTY
Tether
SciTegic.value.DoubleValue
0.000

@<TRIPOS>MOLECULE
guest-8_vm2.mol2 : vm2 ligand conformer 157
          25          24           1
SMALL
USER_CHARGES
 
@<TRIPOS>ATOM
       1    C1      20.108617   19.154850   27.101408 C.2        1 MOL1         0.6168
       2    O1      21.039577   19.442202   27.828143 O.co2      1 MOL1        -0.6703
       3    O2      18.960498   19.491176   27.315285 O.co2      1 MOL1        -0.6703
       4    C2      20.396522   18.306430   25.865930 C.3        1 MOL1        -0.1963
       5    H1      19.452572   17.883261   25.505754 H          1 MOL1         0.0750
       6    H2      21.011901   17.459521   26.191131 H          1 MOL1         0.0750
       7    C3      21.133725   19.068619   24.729942 C.3        1 MOL1        -0.1860
       8    H3      22.078576   19.459955   25.131551 H          1 MOL1         0.0752
       9    H4      21.409933   18.356999   23.943199 H          1 MOL1         0.0752
      10    C4      20.326198   20.246750   24.124344 C.3        1 MOL1        -0.1858
      11    H5      20.991733   20.867288   23.509097 H          1 MOL1         0.0752
      12    H6      19.991823   20.898809   24.942748 H          1 MOL1         0.0752
      13    C5      19.091234   19.827037   23.283282 C.3        1 MOL1        -0.1858
      14    H7      18.680294   18.873869   23.637464 H          1 MOL1         0.0752
      15    H8      18.299282   20.569675   23.450513 H          1 MOL1         0.0752
      16    C6      19.345041   19.753141   21.756565 C.3        1 MOL1        -0.1858
      17    H9      19.664035   20.738589   21.390612 H          1 MOL1         0.0752
      18    H10     18.390198   19.534597   21.259244 H          1 MOL1         0.0752
      19    C7      20.382718   18.689138   21.337454 C.3        1 MOL1        -0.1834
      20    H11     21.372689   18.961064   21.726179 H          1 MOL1         0.0752
      21    H12     20.116350   17.717469   21.775633 H          1 MOL1         0.0752
      22    C8      20.468871   18.554657   19.803647 C.3        1 MOL1        -0.2849
      23    H13     20.758273   19.507723   19.341866 H          1 MOL1         0.0764
      24    H14     21.216238   17.801197   19.523035 H          1 MOL1         0.0764
      25    H15     19.503327   18.247689   19.380812 H          1 MOL1         0.0764
@<TRIPOS>BOND
    1     1     2    1
    2     1     3    2
    3     1     4    1
    4     4     5    1
    5     4     6    1
    6     4     7    1
    7     7     8    1
    8     7     9    1
    9     7    10    1
   10    10    11    1
   11    10    12    1
   12    10    13    1
   13    13    14    1
   14    13    15    1
   15    13    16    1
   16    16    17    1
   17    16    18    1
   18    16    19    1
   19    19    20    1
   20    19    21    1
   21    19    22    1
   22    22    23    1
   23    22    24    1
   24    22    25    1
@<TRIPOS>SUBSTRUCTURE
       1 MOL1            1 RESIDUE      1      MOL     
@<SCITEGIC>MOL_PROPERTY
VM2 Rank
SciTegic.value.IntegerValue
157

@<SCITEGIC>MOL_PROPERTY
Conf_Id
SciTegic.value.IntegerValue
86

@<SCITEGIC>MOL_PROPERTY
Probability
SciTegic.value.DoubleValue
0.00

@<SCITEGIC>MOL_PROPERTY
Sum Probability
SciTegic.value.DoubleValue
100.00

@<SCITEGIC>MOL_PROPERTY
Delta G
SciTegic.value.DoubleValue
6.440

@<SCITEGIC>MOL_PROPERTY
G
SciTegic.value.DoubleValue
-1.522

@<SCITEGIC>MOL_PROPERTY
E
SciTegic.value.DoubleValue
-26.607

@<SCITEGIC>MOL_PROPERTY
-TS
SciTegic.value.DoubleValue
25.085

@<SCITEGIC>MOL_PROPERTY
U+W
SciTegic.value.DoubleValue
-47.174

@<SCITEGIC>MOL_PROPERTY
U
SciTegic.value.DoubleValue
12.590

@<SCITEGIC>MOL_PROPERTY
W
SciTegic.value.DoubleValue
-59.764

@<SCITEGIC>MOL_PROPERTY
W(PB)
SciTegic.value.DoubleValue
-62.181

@<SCITEGIC>MOL_PROPERTY
W(SA)
SciTegic.value.DoubleValue
2.417

@<SCITEGIC>MOL_PROPERTY
Valence
SciTegic.value.DoubleValue
11.587

@<SCITEGIC>MOL_PROPERTY
Coulomb
SciTegic.value.DoubleValue
0.121

@<SCITEGIC>MOL_PROPERTY
VdW
SciTegic.value.DoubleValue
0.881

@<SCITEGIC>MOL_PROPERTY
VdW6
SciTegic.value.DoubleValue
-10.830

@<SCITEGIC>MOL_PROPERTY
VdW12
SciTegic.value.DoubleValue
11.711

@<SCITEGIC>MOL_PROPERTY
Bond
SciTegic.value.DoubleValue
0.286

@<SCITEGIC>MOL_PROPERTY
Angle
SciTegic.value.DoubleValue
3.541

@<SCITEGIC>MOL_PROPERTY
Pdih
SciTegic.value.DoubleValue
7.759

@<SCITEGIC>MOL_PROPERTY
Idih
SciTegic.value.DoubleValue
0.001

@<SCITEGIC>MOL_PROPERTY
Tether
SciTegic.value.DoubleValue
0.000

@<TRIPOS>MOLECULE
guest-8_vm2.mol2 : vm2 ligand conformer 158
          25          24           1
SMALL
USER_CHARGES
 
@<TRIPOS>ATOM
       1    C1      20.379004   18.781130   26.409648 C.2        1 MOL1         0.6168
       2    O1      21.476509   18.314855   26.173458 O.co2      1 MOL1        -0.6703
       3    O2      19.439569   18.118833   26.805148 O.co2      1 MOL1        -0.6703
       4    C2      20.202751   20.294765   26.309049 C.3        1 MOL1        -0.1963
       5    H1      20.947162   20.736941   26.981290 H          1 MOL1         0.0750
       6    H2      19.218666   20.566570   26.709409 H          1 MOL1         0.0750
       7    C3      20.390858   20.891365   24.885848 C.3        1 MOL1        -0.1860
       8    H3      20.622335   21.959098   24.997711 H          1 MOL1         0.0752
       9    H4      21.271364   20.446852   24.403101 H          1 MOL1         0.0752
      10    C4      19.146315   20.778727   23.967206 C.3        1 MOL1        -0.1858
      11    H5      19.321015   21.377708   23.063949 H          1 MOL1         0.0752
      12    H6      18.290786   21.249886   24.469739 H          1 MOL1         0.0752
      13    C5      18.744201   19.341096   23.547541 C.3        1 MOL1        -0.1858
      14    H7      18.420681   18.779978   24.433219 H          1 MOL1         0.0752
      15    H8      17.859671   19.402214   22.899341 H          1 MOL1         0.0752
      16    C6      19.842581   18.532891   22.811632 C.3        1 MOL1        -0.1858
      17    H9      19.445594   17.532704   22.591687 H          1 MOL1         0.0752
      18    H10     20.702727   18.376879   23.475833 H          1 MOL1         0.0752
      19    C7      20.312692   19.188238   21.493440 C.3        1 MOL1        -0.1834
      20    H11     19.445955   19.385568   20.847833 H          1 MOL1         0.0752
      21    H12     20.784638   20.157217   21.703085 H          1 MOL1         0.0752
      22    C8      21.318520   18.292100   20.743031 C.3        1 MOL1        -0.2849
      23    H13     20.866818   17.325659   20.483790 H          1 MOL1         0.0764
      24    H14     21.646563   18.773507   19.812664 H          1 MOL1         0.0764
      25    H15     22.207654   18.101142   21.358180 H          1 MOL1         0.0764
@<TRIPOS>BOND
    1     1     2    1
    2     1     3    2
    3     1     4    1
    4     4     5    1
    5     4     6    1
    6     4     7    1
    7     7     8    1
    8     7     9    1
    9     7    10    1
   10    10    11    1
   11    10    12    1
   12    10    13    1
   13    13    14    1
   14    13    15    1
   15    13    16    1
   16    16    17    1
   17    16    18    1
   18    16    19    1
   19    19    20    1
   20    19    21    1
   21    19    22    1
   22    22    23    1
   23    22    24    1
   24    22    25    1
@<TRIPOS>SUBSTRUCTURE
       1 MOL1            1 RESIDUE      1      MOL     
@<SCITEGIC>MOL_PROPERTY
VM2 Rank
SciTegic.value.IntegerValue
158

@<SCITEGIC>MOL_PROPERTY
Conf_Id
SciTegic.value.IntegerValue
223

@<SCITEGIC>MOL_PROPERTY
Probability
SciTegic.value.DoubleValue
0.00

@<SCITEGIC>MOL_PROPERTY
Sum Probability
SciTegic.value.DoubleValue
100.00

@<SCITEGIC>MOL_PROPERTY
Delta G
SciTegic.value.DoubleValue
6.451

@<SCITEGIC>MOL_PROPERTY
G
SciTegic.value.DoubleValue
-1.512

@<SCITEGIC>MOL_PROPERTY
E
SciTegic.value.DoubleValue
-27.501

@<SCITEGIC>MOL_PROPERTY
-TS
SciTegic.value.DoubleValue
25.989

@<SCITEGIC>MOL_PROPERTY
U+W
SciTegic.value.DoubleValue
-48.068

@<SCITEGIC>MOL_PROPERTY
U
SciTegic.value.DoubleValue
13.028

@<SCITEGIC>MOL_PROPERTY
W
SciTegic.value.DoubleValue
-61.097

@<SCITEGIC>MOL_PROPERTY
W(PB)
SciTegic.value.DoubleValue
-63.471

@<SCITEGIC>MOL_PROPERTY
W(SA)
SciTegic.value.DoubleValue
2.374

@<SCITEGIC>MOL_PROPERTY
Valence
SciTegic.value.DoubleValue
10.559

@<SCITEGIC>MOL_PROPERTY
Coulomb
SciTegic.value.DoubleValue
2.240

@<SCITEGIC>MOL_PROPERTY
VdW
SciTegic.value.DoubleValue
0.229

@<SCITEGIC>MOL_PROPERTY
VdW6
SciTegic.value.DoubleValue
-12.344

@<SCITEGIC>MOL_PROPERTY
VdW12
SciTegic.value.DoubleValue
12.573

@<SCITEGIC>MOL_PROPERTY
Bond
SciTegic.value.DoubleValue
0.282

@<SCITEGIC>MOL_PROPERTY
Angle
SciTegic.value.DoubleValue
4.052

@<SCITEGIC>MOL_PROPERTY
Pdih
SciTegic.value.DoubleValue
6.208

@<SCITEGIC>MOL_PROPERTY
Idih
SciTegic.value.DoubleValue
0.017

@<SCITEGIC>MOL_PROPERTY
Tether
SciTegic.value.DoubleValue
0.000

@<TRIPOS>MOLECULE
guest-8_vm2.mol2 : vm2 ligand conformer 159
          25          24           1
SMALL
USER_CHARGES
 
@<TRIPOS>ATOM
       1    C1      20.011766   19.577263   27.040938 C.2        1 MOL1         0.6168
       2    O1      20.929060   19.188024   27.736847 O.co2      1 MOL1        -0.6703
       3    O2      18.840807   19.379320   27.299398 O.co2      1 MOL1        -0.6703
       4    C2      20.350518   20.376341   25.785659 C.3        1 MOL1        -0.1963
       5    H1      21.105765   21.120311   26.064874 H          1 MOL1         0.0750
       6    H2      19.458242   20.931737   25.472340 H          1 MOL1         0.0750
       7    C3      20.882638   19.514087   24.611648 C.3        1 MOL1        -0.1860
       8    H3      21.235282   20.185175   23.818664 H          1 MOL1         0.0752
       9    H4      21.755265   18.937715   24.948455 H          1 MOL1         0.0752
      10    C4      19.808357   18.554198   24.045862 C.3        1 MOL1        -0.1858
      11    H5      18.928202   19.119777   23.715999 H          1 MOL1         0.0752
      12    H6      19.456305   17.897885   24.853360 H          1 MOL1         0.0752
      13    C5      20.326351   17.662748   22.891470 C.3        1 MOL1        -0.1858
      14    H7      21.159223   17.052972   23.267146 H          1 MOL1         0.0752
      15    H8      19.535680   16.951697   22.616128 H          1 MOL1         0.0752
      16    C6      20.795132   18.405032   21.611718 C.3        1 MOL1        -0.1858
      17    H9      21.184226   17.644107   20.921559 H          1 MOL1         0.0752
      18    H10     21.647937   19.060255   21.831618 H          1 MOL1         0.0752
      19    C7      19.683830   19.190562   20.870397 C.3        1 MOL1        -0.1834
      20    H11     19.873819   19.126016   19.790132 H          1 MOL1         0.0752
      21    H12     18.706658   18.716769   21.036810 H          1 MOL1         0.0752
      22    C8      19.624540   20.686426   21.252062 C.3        1 MOL1        -0.2849
      23    H13     18.857523   21.202453   20.660392 H          1 MOL1         0.0764
      24    H14     19.378693   20.828703   22.310048 H          1 MOL1         0.0764
      25    H15     20.586230   21.178383   21.057137 H          1 MOL1         0.0764
@<TRIPOS>BOND
    1     1     2    1
    2     1     3    2
    3     1     4    1
    4     4     5    1
    5     4     6    1
    6     4     7    1
    7     7     8    1
    8     7     9    1
    9     7    10    1
   10    10    11    1
   11    10    12    1
   12    10    13    1
   13    13    14    1
   14    13    15    1
   15    13    16    1
   16    16    17    1
   17    16    18    1
   18    16    19    1
   19    19    20    1
   20    19    21    1
   21    19    22    1
   22    22    23    1
   23    22    24    1
   24    22    25    1
@<TRIPOS>SUBSTRUCTURE
       1 MOL1            1 RESIDUE      1      MOL     
@<SCITEGIC>MOL_PROPERTY
VM2 Rank
SciTegic.value.IntegerValue
159

@<SCITEGIC>MOL_PROPERTY
Conf_Id
SciTegic.value.IntegerValue
830

@<SCITEGIC>MOL_PROPERTY
Probability
SciTegic.value.DoubleValue
0.00

@<SCITEGIC>MOL_PROPERTY
Sum Probability
SciTegic.value.DoubleValue
100.00

@<SCITEGIC>MOL_PROPERTY
Delta G
SciTegic.value.DoubleValue
6.502

@<SCITEGIC>MOL_PROPERTY
G
SciTegic.value.DoubleValue
-1.460

@<SCITEGIC>MOL_PROPERTY
E
SciTegic.value.DoubleValue
-26.986

@<SCITEGIC>MOL_PROPERTY
-TS
SciTegic.value.DoubleValue
25.526

@<SCITEGIC>MOL_PROPERTY
U+W
SciTegic.value.DoubleValue
-47.553

@<SCITEGIC>MOL_PROPERTY
U
SciTegic.value.DoubleValue
12.525

@<SCITEGIC>MOL_PROPERTY
W
SciTegic.value.DoubleValue
-60.078

@<SCITEGIC>MOL_PROPERTY
W(PB)
SciTegic.value.DoubleValue
-62.471

@<SCITEGIC>MOL_PROPERTY
W(SA)
SciTegic.value.DoubleValue
2.393

@<SCITEGIC>MOL_PROPERTY
Valence
SciTegic.value.DoubleValue
11.399

@<SCITEGIC>MOL_PROPERTY
Coulomb
SciTegic.value.DoubleValue
0.533

@<SCITEGIC>MOL_PROPERTY
VdW
SciTegic.value.DoubleValue
0.593

@<SCITEGIC>MOL_PROPERTY
VdW6
SciTegic.value.DoubleValue
-11.288

@<SCITEGIC>MOL_PROPERTY
VdW12
SciTegic.value.DoubleValue
11.881

@<SCITEGIC>MOL_PROPERTY
Bond
SciTegic.value.DoubleValue
0.261

@<SCITEGIC>MOL_PROPERTY
Angle
SciTegic.value.DoubleValue
3.785

@<SCITEGIC>MOL_PROPERTY
Pdih
SciTegic.value.DoubleValue
7.352

@<SCITEGIC>MOL_PROPERTY
Idih
SciTegic.value.DoubleValue
0.001

@<SCITEGIC>MOL_PROPERTY
Tether
SciTegic.value.DoubleValue
0.000

@<TRIPOS>MOLECULE
guest-8_vm2.mol2 : vm2 ligand conformer 160
          25          24           1
SMALL
USER_CHARGES
 
@<TRIPOS>ATOM
       1    C1      20.071875   19.476459   26.991635 C.2        1 MOL1         0.6168
       2    O1      21.030154   19.754133   27.685978 O.co2      1 MOL1        -0.6703
       3    O2      19.077342   20.170145   26.909933 O.co2      1 MOL1        -0.6703
       4    C2      20.109902   18.170271   26.203295 C.3        1 MOL1        -0.1963
       5    H1      19.094579   17.934400   25.864889 H          1 MOL1         0.0750
       6    H2      20.395764   17.376100   26.902723 H          1 MOL1         0.0750
       7    C3      21.098916   18.180289   25.005648 C.3        1 MOL1        -0.1860
       8    H3      22.114908   18.348289   25.388817 H          1 MOL1         0.0752
       9    H4      21.107396   17.186820   24.537388 H          1 MOL1         0.0752
      10    C4      20.790229   19.247774   23.927232 C.3        1 MOL1        -0.1858
      11    H5      21.588353   19.219453   23.176098 H          1 MOL1         0.0752
      12    H6      20.832295   20.249404   24.376605 H          1 MOL1         0.0752
      13    C5      19.415726   19.049455   23.241600 C.3        1 MOL1        -0.1858
      14    H7      19.300479   18.009735   22.906781 H          1 MOL1         0.0752
      15    H8      18.628247   19.223679   23.986850 H          1 MOL1         0.0752
      16    C6      19.179204   20.019129   22.055809 C.3        1 MOL1        -0.1858
      17    H9      19.741899   20.950379   22.207576 H          1 MOL1         0.0752
      18    H10     18.119212   20.307672   22.056842 H          1 MOL1         0.0752
      19    C7      19.498958   19.423742   20.662139 C.3        1 MOL1        -0.1834
      20    H11     18.868929   18.540924   20.486324 H          1 MOL1         0.0752
      21    H12     19.218232   20.159030   19.895538 H          1 MOL1         0.0752
      22    C8      20.980695   19.042603   20.462733 C.3        1 MOL1        -0.2849
      23    H13     21.264384   18.204598   21.111678 H          1 MOL1         0.0764
      24    H14     21.161466   18.733714   19.425119 H          1 MOL1         0.0764
      25    H15     21.639048   19.892967   20.682665 H          1 MOL1         0.0764
@<TRIPOS>BOND
    1     1     2    1
    2     1     3    2
    3     1     4    1
    4     4     5    1
    5     4     6    1
    6     4     7    1
    7     7     8    1
    8     7     9    1
    9     7    10    1
   10    10    11    1
   11    10    12    1
   12    10    13    1
   13    13    14    1
   14    13    15    1
   15    13    16    1
   16    16    17    1
   17    16    18    1
   18    16    19    1
   19    19    20    1
   20    19    21    1
   21    19    22    1
   22    22    23    1
   23    22    24    1
   24    22    25    1
@<TRIPOS>SUBSTRUCTURE
       1 MOL1            1 RESIDUE      1      MOL     
@<SCITEGIC>MOL_PROPERTY
VM2 Rank
SciTegic.value.IntegerValue
160

@<SCITEGIC>MOL_PROPERTY
Conf_Id
SciTegic.value.IntegerValue
266

@<SCITEGIC>MOL_PROPERTY
Probability
SciTegic.value.DoubleValue
0.00

@<SCITEGIC>MOL_PROPERTY
Sum Probability
SciTegic.value.DoubleValue
100.00

@<SCITEGIC>MOL_PROPERTY
Delta G
SciTegic.value.DoubleValue
6.523

@<SCITEGIC>MOL_PROPERTY
G
SciTegic.value.DoubleValue
-1.439

@<SCITEGIC>MOL_PROPERTY
E
SciTegic.value.DoubleValue
-26.700

@<SCITEGIC>MOL_PROPERTY
-TS
SciTegic.value.DoubleValue
25.261

@<SCITEGIC>MOL_PROPERTY
U+W
SciTegic.value.DoubleValue
-47.268

@<SCITEGIC>MOL_PROPERTY
U
SciTegic.value.DoubleValue
12.990

@<SCITEGIC>MOL_PROPERTY
W
SciTegic.value.DoubleValue
-60.258

@<SCITEGIC>MOL_PROPERTY
W(PB)
SciTegic.value.DoubleValue
-62.651

@<SCITEGIC>MOL_PROPERTY
W(SA)
SciTegic.value.DoubleValue
2.393

@<SCITEGIC>MOL_PROPERTY
Valence
SciTegic.value.DoubleValue
11.321

@<SCITEGIC>MOL_PROPERTY
Coulomb
SciTegic.value.DoubleValue
0.925

@<SCITEGIC>MOL_PROPERTY
VdW
SciTegic.value.DoubleValue
0.744

@<SCITEGIC>MOL_PROPERTY
VdW6
SciTegic.value.DoubleValue
-11.101

@<SCITEGIC>MOL_PROPERTY
VdW12
SciTegic.value.DoubleValue
11.845

@<SCITEGIC>MOL_PROPERTY
Bond
SciTegic.value.DoubleValue
0.264

@<SCITEGIC>MOL_PROPERTY
Angle
SciTegic.value.DoubleValue
3.450

@<SCITEGIC>MOL_PROPERTY
Pdih
SciTegic.value.DoubleValue
7.606

@<SCITEGIC>MOL_PROPERTY
Idih
SciTegic.value.DoubleValue
0.001

@<SCITEGIC>MOL_PROPERTY
Tether
SciTegic.value.DoubleValue
0.000

@<TRIPOS>MOLECULE
guest-8_vm2.mol2 : vm2 ligand conformer 161
          25          24           1
SMALL
USER_CHARGES
 
@<TRIPOS>ATOM
       1    C1      20.091667   19.829323   26.735749 C.2        1 MOL1         0.6168
       2    O1      21.073934   20.539342   26.826136 O.co2      1 MOL1        -0.6703
       3    O2      18.952911   20.237916   26.851401 O.co2      1 MOL1        -0.6703
       4    C2      20.303290   18.337532   26.492486 C.3        1 MOL1        -0.1963
       5    H1      19.392269   17.802135   26.785992 H          1 MOL1         0.0750
       6    H2      21.099148   18.004512   27.168981 H          1 MOL1         0.0750
       7    C3      20.684913   17.986241   25.031039 C.3        1 MOL1        -0.1860
       8    H3      21.585165   18.549367   24.753162 H          1 MOL1         0.0752
       9    H4      20.950045   16.921766   24.978709 H          1 MOL1         0.0752
      10    C4      19.536586   18.275733   24.033995 C.3        1 MOL1        -0.1858
      11    H5      19.277971   19.341047   24.065088 H          1 MOL1         0.0752
      12    H6      18.640250   17.732844   24.363172 H          1 MOL1         0.0752
      13    C5      19.865017   17.844401   22.582158 C.3        1 MOL1        -0.1858
      14    H7      20.226487   16.807304   22.603082 H          1 MOL1         0.0752
      15    H8      18.940574   17.823366   21.989284 H          1 MOL1         0.0752
      16    C6      20.917358   18.729482   21.862012 C.3        1 MOL1        -0.1858
      17    H9      21.520174   18.080500   21.212360 H          1 MOL1         0.0752
      18    H10     21.621428   19.165302   22.581516 H          1 MOL1         0.0752
      19    C7      20.317758   19.848517   20.974953 C.3        1 MOL1        -0.1834
      20    H11     21.139042   20.352853   20.447449 H          1 MOL1         0.0752
      21    H12     19.681432   19.402776   20.198051 H          1 MOL1         0.0752
      22    C8      19.509566   20.905513   21.756071 C.3        1 MOL1        -0.2849
      23    H13     20.100168   21.320822   22.583188 H          1 MOL1         0.0764
      24    H14     19.220577   21.733501   21.096076 H          1 MOL1         0.0764
      25    H15     18.588917   20.474291   22.168400 H          1 MOL1         0.0764
@<TRIPOS>BOND
    1     1     2    1
    2     1     3    2
    3     1     4    1
    4     4     5    1
    5     4     6    1
    6     4     7    1
    7     7     8    1
    8     7     9    1
    9     7    10    1
   10    10    11    1
   11    10    12    1
   12    10    13    1
   13    13    14    1
   14    13    15    1
   15    13    16    1
   16    16    17    1
   17    16    18    1
   18    16    19    1
   19    19    20    1
   20    19    21    1
   21    19    22    1
   22    22    23    1
   23    22    24    1
   24    22    25    1
@<TRIPOS>SUBSTRUCTURE
       1 MOL1            1 RESIDUE      1      MOL     
@<SCITEGIC>MOL_PROPERTY
VM2 Rank
SciTegic.value.IntegerValue
161

@<SCITEGIC>MOL_PROPERTY
Conf_Id
SciTegic.value.IntegerValue
91

@<SCITEGIC>MOL_PROPERTY
Probability
SciTegic.value.DoubleValue
0.00

@<SCITEGIC>MOL_PROPERTY
Sum Probability
SciTegic.value.DoubleValue
100.00

@<SCITEGIC>MOL_PROPERTY
Delta G
SciTegic.value.DoubleValue
6.640

@<SCITEGIC>MOL_PROPERTY
G
SciTegic.value.DoubleValue
-1.322

@<SCITEGIC>MOL_PROPERTY
E
SciTegic.value.DoubleValue
-26.453

@<SCITEGIC>MOL_PROPERTY
-TS
SciTegic.value.DoubleValue
25.130

@<SCITEGIC>MOL_PROPERTY
U+W
SciTegic.value.DoubleValue
-47.020

@<SCITEGIC>MOL_PROPERTY
U
SciTegic.value.DoubleValue
13.848

@<SCITEGIC>MOL_PROPERTY
W
SciTegic.value.DoubleValue
-60.869

@<SCITEGIC>MOL_PROPERTY
W(PB)
SciTegic.value.DoubleValue
-63.247

@<SCITEGIC>MOL_PROPERTY
W(SA)
SciTegic.value.DoubleValue
2.378

@<SCITEGIC>MOL_PROPERTY
Valence
SciTegic.value.DoubleValue
11.487

@<SCITEGIC>MOL_PROPERTY
Coulomb
SciTegic.value.DoubleValue
1.558

@<SCITEGIC>MOL_PROPERTY
VdW
SciTegic.value.DoubleValue
0.803

@<SCITEGIC>MOL_PROPERTY
VdW6
SciTegic.value.DoubleValue
-10.837

@<SCITEGIC>MOL_PROPERTY
VdW12
SciTegic.value.DoubleValue
11.640

@<SCITEGIC>MOL_PROPERTY
Bond
SciTegic.value.DoubleValue
0.263

@<SCITEGIC>MOL_PROPERTY
Angle
SciTegic.value.DoubleValue
3.375

@<SCITEGIC>MOL_PROPERTY
Pdih
SciTegic.value.DoubleValue
7.848

@<SCITEGIC>MOL_PROPERTY
Idih
SciTegic.value.DoubleValue
0.001

@<SCITEGIC>MOL_PROPERTY
Tether
SciTegic.value.DoubleValue
0.000

@<TRIPOS>MOLECULE
guest-8_vm2.mol2 : vm2 ligand conformer 162
          25          24           1
SMALL
USER_CHARGES
 
@<TRIPOS>ATOM
       1    C1      20.140852   19.832474   26.735178 C.2        1 MOL1         0.6168
       2    O1      21.220512   20.383206   26.825269 O.co2      1 MOL1        -0.6703
       3    O2      19.078346   20.411494   26.849038 O.co2      1 MOL1        -0.6703
       4    C2      20.115807   18.325511   26.494678 C.3        1 MOL1        -0.1963
       5    H1      19.384731   17.894650   27.188813 H          1 MOL1         0.0750
       6    H2      21.094217   17.911201   26.766370 H          1 MOL1         0.0750
       7    C3      19.748640   17.926214   25.041881 C.3        1 MOL1        -0.1860
       8    H3      19.620471   16.836522   24.994085 H          1 MOL1         0.0752
       9    H4      18.777698   18.369367   24.785619 H          1 MOL1         0.0752
      10    C4      20.827364   18.358512   24.019124 C.3        1 MOL1        -0.1858
      11    H5      21.793020   17.935032   24.326818 H          1 MOL1         0.0752
      12    H6      20.948451   19.448176   24.045823 H          1 MOL1         0.0752
      13    C5      20.523435   17.886623   22.574587 C.3        1 MOL1        -0.1858
      14    H7      21.429129   17.982952   21.960603 H          1 MOL1         0.0752
      15    H8      20.297953   16.811886   22.602282 H          1 MOL1         0.0752
      16    C6      19.350415   18.629002   21.880112 C.3        1 MOL1        -0.1858
      17    H9      18.613180   18.972417   22.616245 H          1 MOL1         0.0752
      18    H10     18.820640   17.907386   21.243542 H          1 MOL1         0.0752
      19    C7      19.781667   19.814114   20.981131 C.3        1 MOL1        -0.1834
      20    H11     20.451707   19.452118   20.189185 H          1 MOL1         0.0752
      21    H12     18.890807   20.208633   20.473345 H          1 MOL1         0.0752
      22    C8      20.465962   20.966850   21.745002 C.3        1 MOL1        -0.2849
      23    H13     21.443365   20.657364   22.135466 H          1 MOL1         0.0764
      24    H14     20.631610   21.823968   21.079732 H          1 MOL1         0.0764
      25    H15     19.846298   21.304580   22.586056 H          1 MOL1         0.0764
@<TRIPOS>BOND
    1     1     2    1
    2     1     3    2
    3     1     4    1
    4     4     5    1
    5     4     6    1
    6     4     7    1
    7     7     8    1
    8     7     9    1
    9     7    10    1
   10    10    11    1
   11    10    12    1
   12    10    13    1
   13    13    14    1
   14    13    15    1
   15    13    16    1
   16    16    17    1
   17    16    18    1
   18    16    19    1
   19    19    20    1
   20    19    21    1
   21    19    22    1
   22    22    23    1
   23    22    24    1
   24    22    25    1
@<TRIPOS>SUBSTRUCTURE
       1 MOL1            1 RESIDUE      1      MOL     
@<SCITEGIC>MOL_PROPERTY
VM2 Rank
SciTegic.value.IntegerValue
162

@<SCITEGIC>MOL_PROPERTY
Conf_Id
SciTegic.value.IntegerValue
562

@<SCITEGIC>MOL_PROPERTY
Probability
SciTegic.value.DoubleValue
0.00

@<SCITEGIC>MOL_PROPERTY
Sum Probability
SciTegic.value.DoubleValue
100.00

@<SCITEGIC>MOL_PROPERTY
Delta G
SciTegic.value.DoubleValue
6.669

@<SCITEGIC>MOL_PROPERTY
G
SciTegic.value.DoubleValue
-1.294

@<SCITEGIC>MOL_PROPERTY
E
SciTegic.value.DoubleValue
-26.425

@<SCITEGIC>MOL_PROPERTY
-TS
SciTegic.value.DoubleValue
25.131

@<SCITEGIC>MOL_PROPERTY
U+W
SciTegic.value.DoubleValue
-46.992

@<SCITEGIC>MOL_PROPERTY
U
SciTegic.value.DoubleValue
13.848

@<SCITEGIC>MOL_PROPERTY
W
SciTegic.value.DoubleValue
-60.841

@<SCITEGIC>MOL_PROPERTY
W(PB)
SciTegic.value.DoubleValue
-63.238

@<SCITEGIC>MOL_PROPERTY
W(SA)
SciTegic.value.DoubleValue
2.398

@<SCITEGIC>MOL_PROPERTY
Valence
SciTegic.value.DoubleValue
11.487

@<SCITEGIC>MOL_PROPERTY
Coulomb
SciTegic.value.DoubleValue
1.559

@<SCITEGIC>MOL_PROPERTY
VdW
SciTegic.value.DoubleValue
0.803

@<SCITEGIC>MOL_PROPERTY
VdW6
SciTegic.value.DoubleValue
-10.837

@<SCITEGIC>MOL_PROPERTY
VdW12
SciTegic.value.DoubleValue
11.640

@<SCITEGIC>MOL_PROPERTY
Bond
SciTegic.value.DoubleValue
0.263

@<SCITEGIC>MOL_PROPERTY
Angle
SciTegic.value.DoubleValue
3.375

@<SCITEGIC>MOL_PROPERTY
Pdih
SciTegic.value.DoubleValue
7.848

@<SCITEGIC>MOL_PROPERTY
Idih
SciTegic.value.DoubleValue
0.001

@<SCITEGIC>MOL_PROPERTY
Tether
SciTegic.value.DoubleValue
0.000

@<TRIPOS>MOLECULE
guest-8_vm2.mol2 : vm2 ligand conformer 163
          25          24           1
SMALL
USER_CHARGES
 
@<TRIPOS>ATOM
       1    C1      19.676347   19.127521   26.644361 C.2        1 MOL1         0.6168
       2    O1      19.825462   18.105264   27.284947 O.co2      1 MOL1        -0.6703
       3    O2      18.591782   19.549890   26.294698 O.co2      1 MOL1        -0.6703
       4    C2      20.918217   19.940749   26.289526 C.3        1 MOL1        -0.1963
       5    H1      21.487001   20.087296   27.215049 H          1 MOL1         0.0750
       6    H2      20.602580   20.936598   25.958113 H          1 MOL1         0.0750
       7    C3      21.831545   19.273496   25.224970 C.3        1 MOL1        -0.1860
       8    H3      22.725889   19.893824   25.077919 H          1 MOL1         0.0752
       9    H4      22.186241   18.310430   25.617372 H          1 MOL1         0.0752
      10    C4      21.146715   19.032997   23.857241 C.3        1 MOL1        -0.1858
      11    H5      20.286825   18.364864   23.996725 H          1 MOL1         0.0752
      12    H6      21.852151   18.507146   23.199832 H          1 MOL1         0.0752
      13    C5      20.684691   20.336913   23.165635 C.3        1 MOL1        -0.1858
      14    H7      19.860601   20.785103   23.736798 H          1 MOL1         0.0752
      15    H8      21.508405   21.063211   23.185289 H          1 MOL1         0.0752
      16    C6      20.234605   20.149580   21.694883 C.3        1 MOL1        -0.1858
      17    H9      21.071639   19.779139   21.087499 H          1 MOL1         0.0752
      18    H10     19.993013   21.143877   21.295153 H          1 MOL1         0.0752
      19    C7      18.992705   19.241998   21.509569 C.3        1 MOL1        -0.1834
      20    H11     18.352990   19.286109   22.402154 H          1 MOL1         0.0752
      21    H12     18.389390   19.638091   20.681124 H          1 MOL1         0.0752
      22    C8      19.350930   17.775592   21.180169 C.3        1 MOL1        -0.2849
      23    H13     18.439407   17.181396   21.035873 H          1 MOL1         0.0764
      24    H14     19.940590   17.715527   20.256216 H          1 MOL1         0.0764
      25    H15     19.930859   17.307056   21.983228 H          1 MOL1         0.0764
@<TRIPOS>BOND
    1     1     2    1
    2     1     3    2
    3     1     4    1
    4     4     5    1
    5     4     6    1
    6     4     7    1
    7     7     8    1
    8     7     9    1
    9     7    10    1
   10    10    11    1
   11    10    12    1
   12    10    13    1
   13    13    14    1
   14    13    15    1
   15    13    16    1
   16    16    17    1
   17    16    18    1
   18    16    19    1
   19    19    20    1
   20    19    21    1
   21    19    22    1
   22    22    23    1
   23    22    24    1
   24    22    25    1
@<TRIPOS>SUBSTRUCTURE
       1 MOL1            1 RESIDUE      1      MOL     
@<SCITEGIC>MOL_PROPERTY
VM2 Rank
SciTegic.value.IntegerValue
163

@<SCITEGIC>MOL_PROPERTY
Conf_Id
SciTegic.value.IntegerValue
531

@<SCITEGIC>MOL_PROPERTY
Probability
SciTegic.value.DoubleValue
0.00

@<SCITEGIC>MOL_PROPERTY
Sum Probability
SciTegic.value.DoubleValue
100.00

@<SCITEGIC>MOL_PROPERTY
Delta G
SciTegic.value.DoubleValue
6.707

@<SCITEGIC>MOL_PROPERTY
G
SciTegic.value.DoubleValue
-1.255

@<SCITEGIC>MOL_PROPERTY
E
SciTegic.value.DoubleValue
-26.499

@<SCITEGIC>MOL_PROPERTY
-TS
SciTegic.value.DoubleValue
25.244

@<SCITEGIC>MOL_PROPERTY
U+W
SciTegic.value.DoubleValue
-47.066

@<SCITEGIC>MOL_PROPERTY
U
SciTegic.value.DoubleValue
13.834

@<SCITEGIC>MOL_PROPERTY
W
SciTegic.value.DoubleValue
-60.900

@<SCITEGIC>MOL_PROPERTY
W(PB)
SciTegic.value.DoubleValue
-63.271

@<SCITEGIC>MOL_PROPERTY
W(SA)
SciTegic.value.DoubleValue
2.371

@<SCITEGIC>MOL_PROPERTY
Valence
SciTegic.value.DoubleValue
11.236

@<SCITEGIC>MOL_PROPERTY
Coulomb
SciTegic.value.DoubleValue
1.974

@<SCITEGIC>MOL_PROPERTY
VdW
SciTegic.value.DoubleValue
0.624

@<SCITEGIC>MOL_PROPERTY
VdW6
SciTegic.value.DoubleValue
-11.284

@<SCITEGIC>MOL_PROPERTY
VdW12
SciTegic.value.DoubleValue
11.908

@<SCITEGIC>MOL_PROPERTY
Bond
SciTegic.value.DoubleValue
0.259

@<SCITEGIC>MOL_PROPERTY
Angle
SciTegic.value.DoubleValue
3.439

@<SCITEGIC>MOL_PROPERTY
Pdih
SciTegic.value.DoubleValue
7.536

@<SCITEGIC>MOL_PROPERTY
Idih
SciTegic.value.DoubleValue
0.002

@<SCITEGIC>MOL_PROPERTY
Tether
SciTegic.value.DoubleValue
0.000

@<TRIPOS>MOLECULE
guest-8_vm2.mol2 : vm2 ligand conformer 164
          25          24           1
SMALL
USER_CHARGES
 
@<TRIPOS>ATOM
       1    C1      20.658116   19.511259   26.491546 C.2        1 MOL1         0.6168
       2    O1      21.458507   20.298676   26.026984 O.co2      1 MOL1        -0.6703
       3    O2      20.075132   19.690745   27.543191 O.co2      1 MOL1        -0.6703
       4    C2      20.409539   18.202815   25.743918 C.3        1 MOL1        -0.1963
       5    H1      20.711214   17.390144   26.414565 H          1 MOL1         0.0750
       6    H2      21.077602   18.150456   24.877626 H          1 MOL1         0.0750
       7    C3      18.935149   17.983570   25.310517 C.3        1 MOL1        -0.1860
       8    H3      18.833466   16.979374   24.877486 H          1 MOL1         0.0752
       9    H4      18.303727   17.990878   26.209775 H          1 MOL1         0.0752
      10    C4      18.380046   19.028325   24.308707 C.3        1 MOL1        -0.1858
      11    H5      18.451941   20.039771   24.731682 H          1 MOL1         0.0752
      12    H6      17.305420   18.831735   24.193209 H          1 MOL1         0.0752
      13    C5      19.026127   18.978443   22.900197 C.3        1 MOL1        -0.1858
      14    H7      19.397953   17.965889   22.697892 H          1 MOL1         0.0752
      15    H8      18.243772   19.172028   22.153840 H          1 MOL1         0.0752
      16    C6      20.149928   20.025126   22.699162 C.3        1 MOL1        -0.1858
      17    H9      20.973091   19.846352   23.400491 H          1 MOL1         0.0752
      18    H10     19.755305   21.021522   22.939808 H          1 MOL1         0.0752
      19    C7      20.708230   20.054981   21.257249 C.3        1 MOL1        -0.1834
      20    H11     19.892358   20.243845   20.546017 H          1 MOL1         0.0752
      21    H12     21.401744   20.902278   21.166183 H          1 MOL1         0.0752
      22    C8      21.452227   18.760059   20.864528 C.3        1 MOL1        -0.2849
      23    H13     20.770699   17.901124   20.829180 H          1 MOL1         0.0764
      24    H14     21.906770   18.864662   19.870915 H          1 MOL1         0.0764
      25    H15     22.253076   18.535178   21.580940 H          1 MOL1         0.0764
@<TRIPOS>BOND
    1     1     2    1
    2     1     3    2
    3     1     4    1
    4     4     5    1
    5     4     6    1
    6     4     7    1
    7     7     8    1
    8     7     9    1
    9     7    10    1
   10    10    11    1
   11    10    12    1
   12    10    13    1
   13    13    14    1
   14    13    15    1
   15    13    16    1
   16    16    17    1
   17    16    18    1
   18    16    19    1
   19    19    20    1
   20    19    21    1
   21    19    22    1
   22    22    23    1
   23    22    24    1
   24    22    25    1
@<TRIPOS>SUBSTRUCTURE
       1 MOL1            1 RESIDUE      1      MOL     
@<SCITEGIC>MOL_PROPERTY
VM2 Rank
SciTegic.value.IntegerValue
164

@<SCITEGIC>MOL_PROPERTY
Conf_Id
SciTegic.value.IntegerValue
573

@<SCITEGIC>MOL_PROPERTY
Probability
SciTegic.value.DoubleValue
0.00

@<SCITEGIC>MOL_PROPERTY
Sum Probability
SciTegic.value.DoubleValue
100.00

@<SCITEGIC>MOL_PROPERTY
Delta G
SciTegic.value.DoubleValue
6.827

@<SCITEGIC>MOL_PROPERTY
G
SciTegic.value.DoubleValue
-1.136

@<SCITEGIC>MOL_PROPERTY
E
SciTegic.value.DoubleValue
-26.349

@<SCITEGIC>MOL_PROPERTY
-TS
SciTegic.value.DoubleValue
25.213

@<SCITEGIC>MOL_PROPERTY
U+W
SciTegic.value.DoubleValue
-46.917

@<SCITEGIC>MOL_PROPERTY
U
SciTegic.value.DoubleValue
13.927

@<SCITEGIC>MOL_PROPERTY
W
SciTegic.value.DoubleValue
-60.844

@<SCITEGIC>MOL_PROPERTY
W(PB)
SciTegic.value.DoubleValue
-63.215

@<SCITEGIC>MOL_PROPERTY
W(SA)
SciTegic.value.DoubleValue
2.372

@<SCITEGIC>MOL_PROPERTY
Valence
SciTegic.value.DoubleValue
11.622

@<SCITEGIC>MOL_PROPERTY
Coulomb
SciTegic.value.DoubleValue
1.812

@<SCITEGIC>MOL_PROPERTY
VdW
SciTegic.value.DoubleValue
0.493

@<SCITEGIC>MOL_PROPERTY
VdW6
SciTegic.value.DoubleValue
-11.533

@<SCITEGIC>MOL_PROPERTY
VdW12
SciTegic.value.DoubleValue
12.027

@<SCITEGIC>MOL_PROPERTY
Bond
SciTegic.value.DoubleValue
0.265

@<SCITEGIC>MOL_PROPERTY
Angle
SciTegic.value.DoubleValue
3.636

@<SCITEGIC>MOL_PROPERTY
Pdih
SciTegic.value.DoubleValue
7.716

@<SCITEGIC>MOL_PROPERTY
Idih
SciTegic.value.DoubleValue
0.004

@<SCITEGIC>MOL_PROPERTY
Tether
SciTegic.value.DoubleValue
0.000

@<TRIPOS>MOLECULE
guest-8_vm2.mol2 : vm2 ligand conformer 165
          25          24           1
SMALL
USER_CHARGES
 
@<TRIPOS>ATOM
       1    C1      19.805344   19.830487   26.259787 C.2        1 MOL1         0.6168
       2    O1      18.596819   19.934190   26.180572 O.co2      1 MOL1        -0.6703
       3    O2      20.562149   20.781882   26.259994 O.co2      1 MOL1        -0.6703
       4    C2      20.395817   18.439325   26.482916 C.3        1 MOL1        -0.1963
       5    H1      19.577937   17.714753   26.576300 H          1 MOL1         0.0750
       6    H2      20.898594   18.471602   27.456409 H          1 MOL1         0.0750
       7    C3      21.413088   17.970303   25.404810 C.3        1 MOL1        -0.1860
       8    H3      22.094035   18.791874   25.146249 H          1 MOL1         0.0752
       9    H4      22.046589   17.194408   25.855289 H          1 MOL1         0.0752
      10    C4      20.773141   17.364005   24.128317 C.3        1 MOL1        -0.1858
      11    H5      20.161348   16.498521   24.416917 H          1 MOL1         0.0752
      12    H6      21.574355   16.965608   23.491067 H          1 MOL1         0.0752
      13    C5      19.902517   18.324689   23.281131 C.3        1 MOL1        -0.1858
      14    H7      19.480960   17.748203   22.448189 H          1 MOL1         0.0752
      15    H8      19.045636   18.674796   23.870027 H          1 MOL1         0.0752
      16    C6      20.685895   19.536111   22.718323 C.3        1 MOL1        -0.1858
      17    H9      21.534993   19.183399   22.117627 H          1 MOL1         0.0752
      18    H10     21.109423   20.113737   23.549954 H          1 MOL1         0.0752
      19    C7      19.812105   20.491870   21.872956 C.3        1 MOL1        -0.1834
      20    H11     18.958039   20.837452   22.472066 H          1 MOL1         0.0752
      21    H12     20.402782   21.386168   21.631326 H          1 MOL1         0.0752
      22    C8      19.306126   19.861138   20.557195 C.3        1 MOL1        -0.2849
      23    H13     18.774280   20.608027   19.953760 H          1 MOL1         0.0764
      24    H14     20.142278   19.476520   19.958898 H          1 MOL1         0.0764
      25    H15     18.610811   19.034759   20.749618 H          1 MOL1         0.0764
@<TRIPOS>BOND
    1     1     2    1
    2     1     3    2
    3     1     4    1
    4     4     5    1
    5     4     6    1
    6     4     7    1
    7     7     8    1
    8     7     9    1
    9     7    10    1
   10    10    11    1
   11    10    12    1
   12    10    13    1
   13    13    14    1
   14    13    15    1
   15    13    16    1
   16    16    17    1
   17    16    18    1
   18    16    19    1
   19    19    20    1
   20    19    21    1
   21    19    22    1
   22    22    23    1
   23    22    24    1
   24    22    25    1
@<TRIPOS>SUBSTRUCTURE
       1 MOL1            1 RESIDUE      1      MOL     
@<SCITEGIC>MOL_PROPERTY
VM2 Rank
SciTegic.value.IntegerValue
165

@<SCITEGIC>MOL_PROPERTY
Conf_Id
SciTegic.value.IntegerValue
262

@<SCITEGIC>MOL_PROPERTY
Probability
SciTegic.value.DoubleValue
0.00

@<SCITEGIC>MOL_PROPERTY
Sum Probability
SciTegic.value.DoubleValue
100.00

@<SCITEGIC>MOL_PROPERTY
Delta G
SciTegic.value.DoubleValue
6.871

@<SCITEGIC>MOL_PROPERTY
G
SciTegic.value.DoubleValue
-1.091

@<SCITEGIC>MOL_PROPERTY
E
SciTegic.value.DoubleValue
-26.902

@<SCITEGIC>MOL_PROPERTY
-TS
SciTegic.value.DoubleValue
25.811

@<SCITEGIC>MOL_PROPERTY
U+W
SciTegic.value.DoubleValue
-47.469

@<SCITEGIC>MOL_PROPERTY
U
SciTegic.value.DoubleValue
13.610

@<SCITEGIC>MOL_PROPERTY
W
SciTegic.value.DoubleValue
-61.080

@<SCITEGIC>MOL_PROPERTY
W(PB)
SciTegic.value.DoubleValue
-63.432

@<SCITEGIC>MOL_PROPERTY
W(SA)
SciTegic.value.DoubleValue
2.352

@<SCITEGIC>MOL_PROPERTY
Valence
SciTegic.value.DoubleValue
10.664

@<SCITEGIC>MOL_PROPERTY
Coulomb
SciTegic.value.DoubleValue
2.596

@<SCITEGIC>MOL_PROPERTY
VdW
SciTegic.value.DoubleValue
0.350

@<SCITEGIC>MOL_PROPERTY
VdW6
SciTegic.value.DoubleValue
-12.153

@<SCITEGIC>MOL_PROPERTY
VdW12
SciTegic.value.DoubleValue
12.503

@<SCITEGIC>MOL_PROPERTY
Bond
SciTegic.value.DoubleValue
0.280

@<SCITEGIC>MOL_PROPERTY
Angle
SciTegic.value.DoubleValue
4.004

@<SCITEGIC>MOL_PROPERTY
Pdih
SciTegic.value.DoubleValue
6.364

@<SCITEGIC>MOL_PROPERTY
Idih
SciTegic.value.DoubleValue
0.017

@<SCITEGIC>MOL_PROPERTY
Tether
SciTegic.value.DoubleValue
0.000

@<TRIPOS>MOLECULE
guest-8_vm2.mol2 : vm2 ligand conformer 166
          25          24           1
SMALL
USER_CHARGES
 
@<TRIPOS>ATOM
       1    C1      19.761935   19.649407   26.618992 C.2        1 MOL1         0.6168
       2    O1      20.487291   19.859655   27.571683 O.co2      1 MOL1        -0.6703
       3    O2      18.968627   20.463366   26.189335 O.co2      1 MOL1        -0.6703
       4    C2      19.814637   18.271143   25.962784 C.3        1 MOL1        -0.1963
       5    H1      19.042141   18.211579   25.188360 H          1 MOL1         0.0750
       6    H2      19.537399   17.541464   26.732161 H          1 MOL1         0.0750
       7    C3      21.202923   17.893109   25.379804 C.3        1 MOL1        -0.1860
       8    H3      21.944619   17.936812   26.189383 H          1 MOL1         0.0752
       9    H4      21.180201   16.846800   25.046617 H          1 MOL1         0.0752
      10    C4      21.690628   18.787865   24.211727 C.3        1 MOL1        -0.1858
      11    H5      22.728505   18.503054   23.991403 H          1 MOL1         0.0752
      12    H6      21.732252   19.839828   24.526327 H          1 MOL1         0.0752
      13    C5      20.868668   18.642053   22.905426 C.3        1 MOL1        -0.1858
      14    H7      21.567483   18.663922   22.059201 H          1 MOL1         0.0752
      15    H8      20.379119   17.659368   22.873409 H          1 MOL1         0.0752
      16    C6      19.824104   19.768078   22.709309 C.3        1 MOL1        -0.1858
      17    H9      20.336841   20.736809   22.637628 H          1 MOL1         0.0752
      18    H10     19.177364   19.831421   23.592044 H          1 MOL1         0.0752
      19    C7      18.928612   19.565011   21.464829 C.3        1 MOL1        -0.1834
      20    H11     18.405620   18.601547   21.538384 H          1 MOL1         0.0752
      21    H12     18.150385   20.340594   21.461390 H          1 MOL1         0.0752
      22    C8      19.705577   19.634314   20.132111 C.3        1 MOL1        -0.2849
      23    H13     20.416811   18.804102   20.039427 H          1 MOL1         0.0764
      24    H14     19.014333   19.575747   19.281455 H          1 MOL1         0.0764
      25    H15     20.262678   20.576704   20.050744 H          1 MOL1         0.0764
@<TRIPOS>BOND
    1     1     2    1
    2     1     3    2
    3     1     4    1
    4     4     5    1
    5     4     6    1
    6     4     7    1
    7     7     8    1
    8     7     9    1
    9     7    10    1
   10    10    11    1
   11    10    12    1
   12    10    13    1
   13    13    14    1
   14    13    15    1
   15    13    16    1
   16    16    17    1
   17    16    18    1
   18    16    19    1
   19    19    20    1
   20    19    21    1
   21    19    22    1
   22    22    23    1
   23    22    24    1
   24    22    25    1
@<TRIPOS>SUBSTRUCTURE
       1 MOL1            1 RESIDUE      1      MOL     
@<SCITEGIC>MOL_PROPERTY
VM2 Rank
SciTegic.value.IntegerValue
166

@<SCITEGIC>MOL_PROPERTY
Conf_Id
SciTegic.value.IntegerValue
233

@<SCITEGIC>MOL_PROPERTY
Probability
SciTegic.value.DoubleValue
0.00

@<SCITEGIC>MOL_PROPERTY
Sum Probability
SciTegic.value.DoubleValue
100.00

@<SCITEGIC>MOL_PROPERTY
Delta G
SciTegic.value.DoubleValue
6.941

@<SCITEGIC>MOL_PROPERTY
G
SciTegic.value.DoubleValue
-1.021

@<SCITEGIC>MOL_PROPERTY
E
SciTegic.value.DoubleValue
-26.290

@<SCITEGIC>MOL_PROPERTY
-TS
SciTegic.value.DoubleValue
25.269

@<SCITEGIC>MOL_PROPERTY
U+W
SciTegic.value.DoubleValue
-46.858

@<SCITEGIC>MOL_PROPERTY
U
SciTegic.value.DoubleValue
13.632

@<SCITEGIC>MOL_PROPERTY
W
SciTegic.value.DoubleValue
-60.489

@<SCITEGIC>MOL_PROPERTY
W(PB)
SciTegic.value.DoubleValue
-62.869

@<SCITEGIC>MOL_PROPERTY
W(SA)
SciTegic.value.DoubleValue
2.379

@<SCITEGIC>MOL_PROPERTY
Valence
SciTegic.value.DoubleValue
11.731

@<SCITEGIC>MOL_PROPERTY
Coulomb
SciTegic.value.DoubleValue
1.281

@<SCITEGIC>MOL_PROPERTY
VdW
SciTegic.value.DoubleValue
0.620

@<SCITEGIC>MOL_PROPERTY
VdW6
SciTegic.value.DoubleValue
-11.358

@<SCITEGIC>MOL_PROPERTY
VdW12
SciTegic.value.DoubleValue
11.978

@<SCITEGIC>MOL_PROPERTY
Bond
SciTegic.value.DoubleValue
0.262

@<SCITEGIC>MOL_PROPERTY
Angle
SciTegic.value.DoubleValue
3.562

@<SCITEGIC>MOL_PROPERTY
Pdih
SciTegic.value.DoubleValue
7.904

@<SCITEGIC>MOL_PROPERTY
Idih
SciTegic.value.DoubleValue
0.004

@<SCITEGIC>MOL_PROPERTY
Tether
SciTegic.value.DoubleValue
0.000

@<TRIPOS>MOLECULE
guest-8_vm2.mol2 : vm2 ligand conformer 167
          25          24           1
SMALL
USER_CHARGES
 
@<TRIPOS>ATOM
       1    C1      20.193949   19.923186   26.255033 C.2        1 MOL1         0.6168
       2    O1      21.223471   20.560752   26.149422 O.co2      1 MOL1        -0.6703
       3    O2      19.089450   20.430614   26.277534 O.co2      1 MOL1        -0.6703
       4    C2      20.300080   18.416503   26.483978 C.3        1 MOL1        -0.1963
       5    H1      19.858927   18.223654   27.468716 H          1 MOL1         0.0750
       6    H2      21.358807   18.139549   26.555020 H          1 MOL1         0.0750
       7    C3      19.579963   17.533063   25.426578 C.3        1 MOL1        -0.1860
       8    H3      19.375110   16.557226   25.887061 H          1 MOL1         0.0752
       9    H4      18.595909   17.957513   25.187821 H          1 MOL1         0.0752
      10    C4      20.395721   17.273935   24.132765 C.3        1 MOL1        -0.1858
      11    H5      19.846356   16.553479   23.511561 H          1 MOL1         0.0752
      12    H6      21.338535   16.779172   24.402868 H          1 MOL1         0.0752
      13    C5      20.719904   18.519561   23.271400 C.3        1 MOL1        -0.1858
      14    H7      21.339606   19.221792   23.842769 H          1 MOL1         0.0752
      15    H8      21.337400   18.190869   22.426119 H          1 MOL1         0.0752
      16    C6      19.461766   19.244137   22.732832 C.3        1 MOL1        -0.1858
      17    H9      18.841916   19.572875   23.576843 H          1 MOL1         0.0752
      18    H10     18.849968   18.543052   22.149400 H          1 MOL1         0.0752
      19    C7      19.791054   20.486868   21.873283 C.3        1 MOL1        -0.1834
      20    H11     18.855130   21.017076   21.649724 H          1 MOL1         0.0752
      21    H12     20.410425   21.183847   22.454995 H          1 MOL1         0.0752
      22    C8      20.497642   20.145382   20.543175 C.3        1 MOL1        -0.2849
      23    H13     19.911902   19.421636   19.961675 H          1 MOL1         0.0764
      24    H14     20.621538   21.048686   19.932007 H          1 MOL1         0.0764
      25    H15     21.495171   19.722766   20.715576 H          1 MOL1         0.0764
@<TRIPOS>BOND
    1     1     2    1
    2     1     3    2
    3     1     4    1
    4     4     5    1
    5     4     6    1
    6     4     7    1
    7     7     8    1
    8     7     9    1
    9     7    10    1
   10    10    11    1
   11    10    12    1
   12    10    13    1
   13    13    14    1
   14    13    15    1
   15    13    16    1
   16    16    17    1
   17    16    18    1
   18    16    19    1
   19    19    20    1
   20    19    21    1
   21    19    22    1
   22    22    23    1
   23    22    24    1
   24    22    25    1
@<TRIPOS>SUBSTRUCTURE
       1 MOL1            1 RESIDUE      1      MOL     
@<SCITEGIC>MOL_PROPERTY
VM2 Rank
SciTegic.value.IntegerValue
167

@<SCITEGIC>MOL_PROPERTY
Conf_Id
SciTegic.value.IntegerValue
548

@<SCITEGIC>MOL_PROPERTY
Probability
SciTegic.value.DoubleValue
0.00

@<SCITEGIC>MOL_PROPERTY
Sum Probability
SciTegic.value.DoubleValue
100.00

@<SCITEGIC>MOL_PROPERTY
Delta G
SciTegic.value.DoubleValue
6.948

@<SCITEGIC>MOL_PROPERTY
G
SciTegic.value.DoubleValue
-1.015

@<SCITEGIC>MOL_PROPERTY
E
SciTegic.value.DoubleValue
-26.826

@<SCITEGIC>MOL_PROPERTY
-TS
SciTegic.value.DoubleValue
25.811

@<SCITEGIC>MOL_PROPERTY
U+W
SciTegic.value.DoubleValue
-47.393

@<SCITEGIC>MOL_PROPERTY
U
SciTegic.value.DoubleValue
13.609

@<SCITEGIC>MOL_PROPERTY
W
SciTegic.value.DoubleValue
-61.003

@<SCITEGIC>MOL_PROPERTY
W(PB)
SciTegic.value.DoubleValue
-63.344

@<SCITEGIC>MOL_PROPERTY
W(SA)
SciTegic.value.DoubleValue
2.341

@<SCITEGIC>MOL_PROPERTY
Valence
SciTegic.value.DoubleValue
10.664

@<SCITEGIC>MOL_PROPERTY
Coulomb
SciTegic.value.DoubleValue
2.595

@<SCITEGIC>MOL_PROPERTY
VdW
SciTegic.value.DoubleValue
0.350

@<SCITEGIC>MOL_PROPERTY
VdW6
SciTegic.value.DoubleValue
-12.153

@<SCITEGIC>MOL_PROPERTY
VdW12
SciTegic.value.DoubleValue
12.503

@<SCITEGIC>MOL_PROPERTY
Bond
SciTegic.value.DoubleValue
0.280

@<SCITEGIC>MOL_PROPERTY
Angle
SciTegic.value.DoubleValue
4.004

@<SCITEGIC>MOL_PROPERTY
Pdih
SciTegic.value.DoubleValue
6.364

@<SCITEGIC>MOL_PROPERTY
Idih
SciTegic.value.DoubleValue
0.017

@<SCITEGIC>MOL_PROPERTY
Tether
SciTegic.value.DoubleValue
0.000

@<TRIPOS>MOLECULE
guest-8_vm2.mol2 : vm2 ligand conformer 168
          25          24           1
SMALL
USER_CHARGES
 
@<TRIPOS>ATOM
       1    C1      19.766892   19.631835   27.028198 C.2        1 MOL1         0.6168
       2    O1      19.955061   18.808037   27.901558 O.co2      1 MOL1        -0.6703
       3    O2      18.797739   20.363908   26.990672 O.co2      1 MOL1        -0.6703
       4    C2      20.795840   19.741045   25.908600 C.3        1 MOL1        -0.1963
       5    H1      21.784880   19.531278   26.333094 H          1 MOL1         0.0750
       6    H2      20.807054   20.779484   25.556319 H          1 MOL1         0.0750
       7    C3      20.505011   18.781277   24.728862 C.3        1 MOL1        -0.1860
       8    H3      20.485307   17.747460   25.100316 H          1 MOL1         0.0752
       9    H4      19.503231   18.990538   24.335194 H          1 MOL1         0.0752
      10    C4      21.566082   18.908862   23.610420 C.3        1 MOL1        -0.1858
      11    H5      22.541692   18.635648   24.035209 H          1 MOL1         0.0752
      12    H6      21.660953   19.952022   23.280964 H          1 MOL1         0.0752
      13    C5      21.286614   17.990882   22.394751 C.3        1 MOL1        -0.1858
      14    H7      22.253996   17.632199   22.017456 H          1 MOL1         0.0752
      15    H8      20.743252   17.091069   22.713903 H          1 MOL1         0.0752
      16    C6      20.551093   18.662660   21.204697 C.3        1 MOL1        -0.1858
      17    H9      20.543727   17.938921   20.378260 H          1 MOL1         0.0752
      18    H10     21.131492   19.520781   20.839276 H          1 MOL1         0.0752
      19    C7      19.085586   19.084214   21.473815 C.3        1 MOL1        -0.1834
      20    H11     18.508237   18.947025   20.549129 H          1 MOL1         0.0752
      21    H12     18.627097   18.418442   22.217127 H          1 MOL1         0.0752
      22    C8      18.943082   20.561279   21.904427 C.3        1 MOL1        -0.2849
      23    H13     19.329917   21.233254   21.127478 H          1 MOL1         0.0764
      24    H14     17.887672   20.812405   22.070803 H          1 MOL1         0.0764
      25    H15     19.486213   20.770811   22.832591 H          1 MOL1         0.0764
@<TRIPOS>BOND
    1     1     2    1
    2     1     3    2
    3     1     4    1
    4     4     5    1
    5     4     6    1
    6     4     7    1
    7     7     8    1
    8     7     9    1
    9     7    10    1
   10    10    11    1
   11    10    12    1
   12    10    13    1
   13    13    14    1
   14    13    15    1
   15    13    16    1
   16    16    17    1
   17    16    18    1
   18    16    19    1
   19    19    20    1
   20    19    21    1
   21    19    22    1
   22    22    23    1
   23    22    24    1
   24    22    25    1
@<TRIPOS>SUBSTRUCTURE
       1 MOL1            1 RESIDUE      1      MOL     
@<SCITEGIC>MOL_PROPERTY
VM2 Rank
SciTegic.value.IntegerValue
168

@<SCITEGIC>MOL_PROPERTY
Conf_Id
SciTegic.value.IntegerValue
247

@<SCITEGIC>MOL_PROPERTY
Probability
SciTegic.value.DoubleValue
0.00

@<SCITEGIC>MOL_PROPERTY
Sum Probability
SciTegic.value.DoubleValue
100.00

@<SCITEGIC>MOL_PROPERTY
Delta G
SciTegic.value.DoubleValue
7.250

@<SCITEGIC>MOL_PROPERTY
G
SciTegic.value.DoubleValue
-0.712

@<SCITEGIC>MOL_PROPERTY
E
SciTegic.value.DoubleValue
-25.966

@<SCITEGIC>MOL_PROPERTY
-TS
SciTegic.value.DoubleValue
25.254

@<SCITEGIC>MOL_PROPERTY
U+W
SciTegic.value.DoubleValue
-46.534

@<SCITEGIC>MOL_PROPERTY
U
SciTegic.value.DoubleValue
13.593

@<SCITEGIC>MOL_PROPERTY
W
SciTegic.value.DoubleValue
-60.127

@<SCITEGIC>MOL_PROPERTY
W(PB)
SciTegic.value.DoubleValue
-62.510

@<SCITEGIC>MOL_PROPERTY
W(SA)
SciTegic.value.DoubleValue
2.383

@<SCITEGIC>MOL_PROPERTY
Valence
SciTegic.value.DoubleValue
13.121

@<SCITEGIC>MOL_PROPERTY
Coulomb
SciTegic.value.DoubleValue
-0.197

@<SCITEGIC>MOL_PROPERTY
VdW
SciTegic.value.DoubleValue
0.669

@<SCITEGIC>MOL_PROPERTY
VdW6
SciTegic.value.DoubleValue
-10.627

@<SCITEGIC>MOL_PROPERTY
VdW12
SciTegic.value.DoubleValue
11.296

@<SCITEGIC>MOL_PROPERTY
Bond
SciTegic.value.DoubleValue
0.238

@<SCITEGIC>MOL_PROPERTY
Angle
SciTegic.value.DoubleValue
3.709

@<SCITEGIC>MOL_PROPERTY
Pdih
SciTegic.value.DoubleValue
9.174

@<SCITEGIC>MOL_PROPERTY
Idih
SciTegic.value.DoubleValue
0.000

@<SCITEGIC>MOL_PROPERTY
Tether
SciTegic.value.DoubleValue
0.000

@<TRIPOS>MOLECULE
guest-8_vm2.mol2 : vm2 ligand conformer 169
          25          24           1
SMALL
USER_CHARGES
 
@<TRIPOS>ATOM
       1    C1      20.495402   19.677899   27.019797 C.2        1 MOL1         0.6168
       2    O1      21.362997   20.526697   26.961343 O.co2      1 MOL1        -0.6703
       3    O2      20.433174   18.837855   27.895734 O.co2      1 MOL1        -0.6703
       4    C2      19.435388   19.654794   25.924355 C.3        1 MOL1        -0.1963
       5    H1      19.285042   20.683020   25.574026 H          1 MOL1         0.0750
       6    H2      18.490790   19.322416   26.371184 H          1 MOL1         0.0750
       7    C3      19.817812   18.737801   24.736758 C.3        1 MOL1        -0.1860
       8    H3      20.775823   19.071320   24.320461 H          1 MOL1         0.0752
       9    H4      19.976420   17.715256   25.106064 H          1 MOL1         0.0752
      10    C4      18.723654   18.728874   23.643233 C.3        1 MOL1        -0.1858
      11    H5      18.490368   19.751253   23.317593 H          1 MOL1         0.0752
      12    H6      17.800353   18.335357   24.089963 H          1 MOL1         0.0752
      13    C5      19.088652   17.851744   22.420099 C.3        1 MOL1        -0.1858
      14    H7      19.748364   17.028112   22.725344 H          1 MOL1         0.0752
      15    H8      18.165824   17.373367   22.064606 H          1 MOL1         0.0752
      16    C6      19.706014   18.609242   21.214460 C.3        1 MOL1        -0.1858
      17    H9      19.013786   19.386814   20.863786 H          1 MOL1         0.0752
      18    H10     19.785563   17.891056   20.386976 H          1 MOL1         0.0752
      19    C7      21.112465   19.212606   21.450444 C.3        1 MOL1        -0.1834
      20    H11     21.668191   18.611059   22.182077 H          1 MOL1         0.0752
      21    H12     21.681118   19.147936   20.512548 H          1 MOL1         0.0752
      22    C8      21.077442   20.696487   21.879777 C.3        1 MOL1        -0.2849
      23    H13     20.533589   20.837252   22.820412 H          1 MOL1         0.0764
      24    H14     22.096302   21.078898   22.022331 H          1 MOL1         0.0764
      25    H15     20.591322   21.313186   21.112828 H          1 MOL1         0.0764
@<TRIPOS>BOND
    1     1     2    1
    2     1     3    2
    3     1     4    1
    4     4     5    1
    5     4     6    1
    6     4     7    1
    7     7     8    1
    8     7     9    1
    9     7    10    1
   10    10    11    1
   11    10    12    1
   12    10    13    1
   13    13    14    1
   14    13    15    1
   15    13    16    1
   16    16    17    1
   17    16    18    1
   18    16    19    1
   19    19    20    1
   20    19    21    1
   21    19    22    1
   22    22    23    1
   23    22    24    1
   24    22    25    1
@<TRIPOS>SUBSTRUCTURE
       1 MOL1            1 RESIDUE      1      MOL     
@<SCITEGIC>MOL_PROPERTY
VM2 Rank
SciTegic.value.IntegerValue
169

@<SCITEGIC>MOL_PROPERTY
Conf_Id
SciTegic.value.IntegerValue
1104

@<SCITEGIC>MOL_PROPERTY
Probability
SciTegic.value.DoubleValue
0.00

@<SCITEGIC>MOL_PROPERTY
Sum Probability
SciTegic.value.DoubleValue
100.00

@<SCITEGIC>MOL_PROPERTY
Delta G
SciTegic.value.DoubleValue
7.253

@<SCITEGIC>MOL_PROPERTY
G
SciTegic.value.DoubleValue
-0.709

@<SCITEGIC>MOL_PROPERTY
E
SciTegic.value.DoubleValue
-25.964

@<SCITEGIC>MOL_PROPERTY
-TS
SciTegic.value.DoubleValue
25.254

@<SCITEGIC>MOL_PROPERTY
U+W
SciTegic.value.DoubleValue
-46.531

@<SCITEGIC>MOL_PROPERTY
U
SciTegic.value.DoubleValue
13.593

@<SCITEGIC>MOL_PROPERTY
W
SciTegic.value.DoubleValue
-60.124

@<SCITEGIC>MOL_PROPERTY
W(PB)
SciTegic.value.DoubleValue
-62.518

@<SCITEGIC>MOL_PROPERTY
W(SA)
SciTegic.value.DoubleValue
2.394

@<SCITEGIC>MOL_PROPERTY
Valence
SciTegic.value.DoubleValue
13.121

@<SCITEGIC>MOL_PROPERTY
Coulomb
SciTegic.value.DoubleValue
-0.197

@<SCITEGIC>MOL_PROPERTY
VdW
SciTegic.value.DoubleValue
0.669

@<SCITEGIC>MOL_PROPERTY
VdW6
SciTegic.value.DoubleValue
-10.627

@<SCITEGIC>MOL_PROPERTY
VdW12
SciTegic.value.DoubleValue
11.296

@<SCITEGIC>MOL_PROPERTY
Bond
SciTegic.value.DoubleValue
0.238

@<SCITEGIC>MOL_PROPERTY
Angle
SciTegic.value.DoubleValue
3.709

@<SCITEGIC>MOL_PROPERTY
Pdih
SciTegic.value.DoubleValue
9.174

@<SCITEGIC>MOL_PROPERTY
Idih
SciTegic.value.DoubleValue
0.000

@<SCITEGIC>MOL_PROPERTY
Tether
SciTegic.value.DoubleValue
0.000

@<TRIPOS>MOLECULE
guest-8_vm2.mol2 : vm2 ligand conformer 170
          25          24           1
SMALL
USER_CHARGES
 
@<TRIPOS>ATOM
       1    C1      19.921123   19.695265   27.087312 C.2        1 MOL1         0.6168
       2    O1      20.944424   20.034737   27.648028 O.co2      1 MOL1        -0.6703
       3    O2      18.881139   19.459036   27.669928 O.co2      1 MOL1        -0.6703
       4    C2      19.949345   19.535061   25.571650 C.3        1 MOL1        -0.1963
       5    H1      20.650038   20.276436   25.171111 H          1 MOL1         0.0750
       6    H2      18.953295   19.781031   25.184931 H          1 MOL1         0.0750
       7    C3      20.358674   18.108174   25.126148 C.3        1 MOL1        -0.1860
       8    H3      21.374870   17.893752   25.484751 H          1 MOL1         0.0752
       9    H4      19.698532   17.382107   25.620469 H          1 MOL1         0.0752
      10    C4      20.288242   17.877870   23.595532 C.3        1 MOL1        -0.1858
      11    H5      19.256587   18.015076   23.247884 H          1 MOL1         0.0752
      12    H6      20.532256   16.824055   23.404631 H          1 MOL1         0.0752
      13    C5      21.265580   18.758103   22.772385 C.3        1 MOL1        -0.1858
      14    H7      22.142962   18.991856   23.390650 H          1 MOL1         0.0752
      15    H8      21.652454   18.176129   21.924886 H          1 MOL1         0.0752
      16    C6      20.647446   20.077160   22.237045 C.3        1 MOL1        -0.1858
      17    H9      21.429192   20.848746   22.243076 H          1 MOL1         0.0752
      18    H10     19.861574   20.440027   22.911046 H          1 MOL1         0.0752
      19    C7      20.092132   19.981393   20.794483 C.3        1 MOL1        -0.1834
      20    H11     19.769624   20.982161   20.475810 H          1 MOL1         0.0752
      21    H12     20.897640   19.685106   20.108513 H          1 MOL1         0.0752
      22    C8      18.904896   19.007201   20.643490 C.3        1 MOL1        -0.2849
      23    H13     18.094366   19.265110   21.337339 H          1 MOL1         0.0764
      24    H14     18.502460   19.046786   19.623104 H          1 MOL1         0.0764
      25    H15     19.213647   17.972635   20.839299 H          1 MOL1         0.0764
@<TRIPOS>BOND
    1     1     2    1
    2     1     3    2
    3     1     4    1
    4     4     5    1
    5     4     6    1
    6     4     7    1
    7     7     8    1
    8     7     9    1
    9     7    10    1
   10    10    11    1
   11    10    12    1
   12    10    13    1
   13    13    14    1
   14    13    15    1
   15    13    16    1
   16    16    17    1
   17    16    18    1
   18    16    19    1
   19    19    20    1
   20    19    21    1
   21    19    22    1
   22    22    23    1
   23    22    24    1
   24    22    25    1
@<TRIPOS>SUBSTRUCTURE
       1 MOL1            1 RESIDUE      1      MOL     
@<SCITEGIC>MOL_PROPERTY
VM2 Rank
SciTegic.value.IntegerValue
170

@<SCITEGIC>MOL_PROPERTY
Conf_Id
SciTegic.value.IntegerValue
6

@<SCITEGIC>MOL_PROPERTY
Probability
SciTegic.value.DoubleValue
0.00

@<SCITEGIC>MOL_PROPERTY
Sum Probability
SciTegic.value.DoubleValue
100.00

@<SCITEGIC>MOL_PROPERTY
Delta G
SciTegic.value.DoubleValue
7.264

@<SCITEGIC>MOL_PROPERTY
G
SciTegic.value.DoubleValue
-0.698

@<SCITEGIC>MOL_PROPERTY
E
SciTegic.value.DoubleValue
-25.926

@<SCITEGIC>MOL_PROPERTY
-TS
SciTegic.value.DoubleValue
25.227

@<SCITEGIC>MOL_PROPERTY
U+W
SciTegic.value.DoubleValue
-46.493

@<SCITEGIC>MOL_PROPERTY
U
SciTegic.value.DoubleValue
13.064

@<SCITEGIC>MOL_PROPERTY
W
SciTegic.value.DoubleValue
-59.557

@<SCITEGIC>MOL_PROPERTY
W(PB)
SciTegic.value.DoubleValue
-61.926

@<SCITEGIC>MOL_PROPERTY
W(SA)
SciTegic.value.DoubleValue
2.369

@<SCITEGIC>MOL_PROPERTY
Valence
SciTegic.value.DoubleValue
13.064

@<SCITEGIC>MOL_PROPERTY
Coulomb
SciTegic.value.DoubleValue
-1.007

@<SCITEGIC>MOL_PROPERTY
VdW
SciTegic.value.DoubleValue
1.008

@<SCITEGIC>MOL_PROPERTY
VdW6
SciTegic.value.DoubleValue
-10.968

@<SCITEGIC>MOL_PROPERTY
VdW12
SciTegic.value.DoubleValue
11.976

@<SCITEGIC>MOL_PROPERTY
Bond
SciTegic.value.DoubleValue
0.280

@<SCITEGIC>MOL_PROPERTY
Angle
SciTegic.value.DoubleValue
3.439

@<SCITEGIC>MOL_PROPERTY
Pdih
SciTegic.value.DoubleValue
9.344

@<SCITEGIC>MOL_PROPERTY
Idih
SciTegic.value.DoubleValue
0.001

@<SCITEGIC>MOL_PROPERTY
Tether
SciTegic.value.DoubleValue
0.000

@<TRIPOS>MOLECULE
guest-8_vm2.mol2 : vm2 ligand conformer 171
          25          24           1
SMALL
USER_CHARGES
 
@<TRIPOS>ATOM
       1    C1      20.492422   19.055586   26.528539 C.2        1 MOL1         0.6168
       2    O1      21.644040   19.442349   26.483811 O.co2      1 MOL1        -0.6703
       3    O2      20.175626   17.928049   26.853962 O.co2      1 MOL1        -0.6703
       4    C2      19.381075   20.069835   26.266850 C.3        1 MOL1        -0.1963
       5    H1      19.524844   20.878447   26.992818 H          1 MOL1         0.0750
       6    H2      18.414343   19.607705   26.500188 H          1 MOL1         0.0750
       7    C3      19.359084   20.675321   24.835149 C.3        1 MOL1        -0.1860
       8    H3      18.806072   21.623084   24.880231 H          1 MOL1         0.0752
       9    H4      20.377439   20.941253   24.522031 H          1 MOL1         0.0752
      10    C4      18.671742   19.785778   23.766557 C.3        1 MOL1        -0.1858
      11    H5      18.549512   20.372497   22.846723 H          1 MOL1         0.0752
      12    H6      17.652774   19.550345   24.102099 H          1 MOL1         0.0752
      13    C5      19.399764   18.460853   23.422177 C.3        1 MOL1        -0.1858
      14    H7      19.402845   17.807732   24.303680 H          1 MOL1         0.0752
      15    H8      18.810905   17.923042   22.667949 H          1 MOL1         0.0752
      16    C6      20.855673   18.619602   22.909702 C.3        1 MOL1        -0.1858
      17    H9      21.259663   17.622239   22.690175 H          1 MOL1         0.0752
      18    H10     21.482805   19.020786   23.716603 H          1 MOL1         0.0752
      19    C7      21.020107   19.512828   21.655367 C.3        1 MOL1        -0.1834
      20    H11     20.700610   20.539328   21.878599 H          1 MOL1         0.0752
      21    H12     22.088553   19.574217   21.407400 H          1 MOL1         0.0752
      22    C8      20.253467   18.983798   20.423887 C.3        1 MOL1        -0.2849
      23    H13     19.169068   19.006870   20.589480 H          1 MOL1         0.0764
      24    H14     20.469070   19.601299   19.542465 H          1 MOL1         0.0764
      25    H15     20.545237   17.950933   20.193728 H          1 MOL1         0.0764
@<TRIPOS>BOND
    1     1     2    1
    2     1     3    2
    3     1     4    1
    4     4     5    1
    5     4     6    1
    6     4     7    1
    7     7     8    1
    8     7     9    1
    9     7    10    1
   10    10    11    1
   11    10    12    1
   12    10    13    1
   13    13    14    1
   14    13    15    1
   15    13    16    1
   16    16    17    1
   17    16    18    1
   18    16    19    1
   19    19    20    1
   20    19    21    1
   21    19    22    1
   22    22    23    1
   23    22    24    1
   24    22    25    1
@<TRIPOS>SUBSTRUCTURE
       1 MOL1            1 RESIDUE      1      MOL     
@<SCITEGIC>MOL_PROPERTY
VM2 Rank
SciTegic.value.IntegerValue
171

@<SCITEGIC>MOL_PROPERTY
Conf_Id
SciTegic.value.IntegerValue
447

@<SCITEGIC>MOL_PROPERTY
Probability
SciTegic.value.DoubleValue
0.00

@<SCITEGIC>MOL_PROPERTY
Sum Probability
SciTegic.value.DoubleValue
100.00

@<SCITEGIC>MOL_PROPERTY
Delta G
SciTegic.value.DoubleValue
7.279

@<SCITEGIC>MOL_PROPERTY
G
SciTegic.value.DoubleValue
-0.683

@<SCITEGIC>MOL_PROPERTY
E
SciTegic.value.DoubleValue
-26.968

@<SCITEGIC>MOL_PROPERTY
-TS
SciTegic.value.DoubleValue
26.285

@<SCITEGIC>MOL_PROPERTY
U+W
SciTegic.value.DoubleValue
-47.536

@<SCITEGIC>MOL_PROPERTY
U
SciTegic.value.DoubleValue
13.324

@<SCITEGIC>MOL_PROPERTY
W
SciTegic.value.DoubleValue
-60.860

@<SCITEGIC>MOL_PROPERTY
W(PB)
SciTegic.value.DoubleValue
-63.185

@<SCITEGIC>MOL_PROPERTY
W(SA)
SciTegic.value.DoubleValue
2.325

@<SCITEGIC>MOL_PROPERTY
Valence
SciTegic.value.DoubleValue
10.989

@<SCITEGIC>MOL_PROPERTY
Coulomb
SciTegic.value.DoubleValue
2.085

@<SCITEGIC>MOL_PROPERTY
VdW
SciTegic.value.DoubleValue
0.250

@<SCITEGIC>MOL_PROPERTY
VdW6
SciTegic.value.DoubleValue
-13.144

@<SCITEGIC>MOL_PROPERTY
VdW12
SciTegic.value.DoubleValue
13.394

@<SCITEGIC>MOL_PROPERTY
Bond
SciTegic.value.DoubleValue
0.321

@<SCITEGIC>MOL_PROPERTY
Angle
SciTegic.value.DoubleValue
4.360

@<SCITEGIC>MOL_PROPERTY
Pdih
SciTegic.value.DoubleValue
6.292

@<SCITEGIC>MOL_PROPERTY
Idih
SciTegic.value.DoubleValue
0.016

@<SCITEGIC>MOL_PROPERTY
Tether
SciTegic.value.DoubleValue
0.000

@<TRIPOS>MOLECULE
guest-8_vm2.mol2 : vm2 ligand conformer 172
          25          24           1
SMALL
USER_CHARGES
 
@<TRIPOS>ATOM
       1    C1      20.181821   18.895468   27.106285 C.2        1 MOL1         0.6168
       2    O1      21.200867   19.247980   27.666706 O.co2      1 MOL1        -0.6703
       3    O2      19.194262   18.498354   27.692667 O.co2      1 MOL1        -0.6703
       4    C2      20.131495   18.976411   25.584903 C.3        1 MOL1        -0.1963
       5    H1      19.476992   18.174645   25.223009 H          1 MOL1         0.0750
       6    H2      21.139949   18.773709   25.206783 H          1 MOL1         0.0750
       7    C3      19.627986   20.349888   25.072977 C.3        1 MOL1        -0.1860
       8    H3      18.660029   20.568171   25.544914 H          1 MOL1         0.0752
       9    H4      20.317771   21.136855   25.407804 H          1 MOL1         0.0752
      10    C4      19.456776   20.428632   23.535033 C.3        1 MOL1        -0.1858
      11    H5      19.035877   21.414582   23.295743 H          1 MOL1         0.0752
      12    H6      18.708877   19.695332   23.208052 H          1 MOL1         0.0752
      13    C5      20.776428   20.258686   22.736784 C.3        1 MOL1        -0.1858
      14    H7      20.758061   20.919869   21.859790 H          1 MOL1         0.0752
      15    H8      21.614401   20.613354   23.352173 H          1 MOL1         0.0752
      16    C6      21.061402   18.807185   22.267184 C.3        1 MOL1        -0.1858
      17    H9      20.630713   18.080365   22.967030 H          1 MOL1         0.0752
      18    H10     22.147445   18.645241   22.295383 H          1 MOL1         0.0752
      19    C7      20.576481   18.495549   20.829734 C.3        1 MOL1        -0.1834
      20    H11     21.062361   19.179746   20.120524 H          1 MOL1         0.0752
      21    H12     20.909874   17.484348   20.558765 H          1 MOL1         0.0752
      22    C8      19.045482   18.575847   20.653727 C.3        1 MOL1        -0.2849
      23    H13     18.682768   19.600940   20.800752 H          1 MOL1         0.0764
      24    H14     18.757912   18.263179   19.641675 H          1 MOL1         0.0764
      25    H15     18.532830   17.919957   21.369200 H          1 MOL1         0.0764
@<TRIPOS>BOND
    1     1     2    1
    2     1     3    2
    3     1     4    1
    4     4     5    1
    5     4     6    1
    6     4     7    1
    7     7     8    1
    8     7     9    1
    9     7    10    1
   10    10    11    1
   11    10    12    1
   12    10    13    1
   13    13    14    1
   14    13    15    1
   15    13    16    1
   16    16    17    1
   17    16    18    1
   18    16    19    1
   19    19    20    1
   20    19    21    1
   21    19    22    1
   22    22    23    1
   23    22    24    1
   24    22    25    1
@<TRIPOS>SUBSTRUCTURE
       1 MOL1            1 RESIDUE      1      MOL     
@<SCITEGIC>MOL_PROPERTY
VM2 Rank
SciTegic.value.IntegerValue
172

@<SCITEGIC>MOL_PROPERTY
Conf_Id
SciTegic.value.IntegerValue
5

@<SCITEGIC>MOL_PROPERTY
Probability
SciTegic.value.DoubleValue
0.00

@<SCITEGIC>MOL_PROPERTY
Sum Probability
SciTegic.value.DoubleValue
100.00

@<SCITEGIC>MOL_PROPERTY
Delta G
SciTegic.value.DoubleValue
7.289

@<SCITEGIC>MOL_PROPERTY
G
SciTegic.value.DoubleValue
-0.673

@<SCITEGIC>MOL_PROPERTY
E
SciTegic.value.DoubleValue
-25.900

@<SCITEGIC>MOL_PROPERTY
-TS
SciTegic.value.DoubleValue
25.227

@<SCITEGIC>MOL_PROPERTY
U+W
SciTegic.value.DoubleValue
-46.468

@<SCITEGIC>MOL_PROPERTY
U
SciTegic.value.DoubleValue
13.064

@<SCITEGIC>MOL_PROPERTY
W
SciTegic.value.DoubleValue
-59.532

@<SCITEGIC>MOL_PROPERTY
W(PB)
SciTegic.value.DoubleValue
-61.933

@<SCITEGIC>MOL_PROPERTY
W(SA)
SciTegic.value.DoubleValue
2.401

@<SCITEGIC>MOL_PROPERTY
Valence
SciTegic.value.DoubleValue
13.064

@<SCITEGIC>MOL_PROPERTY
Coulomb
SciTegic.value.DoubleValue
-1.008

@<SCITEGIC>MOL_PROPERTY
VdW
SciTegic.value.DoubleValue
1.008

@<SCITEGIC>MOL_PROPERTY
VdW6
SciTegic.value.DoubleValue
-10.968

@<SCITEGIC>MOL_PROPERTY
VdW12
SciTegic.value.DoubleValue
11.977

@<SCITEGIC>MOL_PROPERTY
Bond
SciTegic.value.DoubleValue
0.280

@<SCITEGIC>MOL_PROPERTY
Angle
SciTegic.value.DoubleValue
3.438

@<SCITEGIC>MOL_PROPERTY
Pdih
SciTegic.value.DoubleValue
9.345

@<SCITEGIC>MOL_PROPERTY
Idih
SciTegic.value.DoubleValue
0.001

@<SCITEGIC>MOL_PROPERTY
Tether
SciTegic.value.DoubleValue
0.000

@<TRIPOS>MOLECULE
guest-8_vm2.mol2 : vm2 ligand conformer 173
          25          24           1
SMALL
USER_CHARGES
 
@<TRIPOS>ATOM
       1    C1      19.836598   19.014635   26.536108 C.2        1 MOL1         0.6168
       2    O1      20.298857   17.935829   26.852484 O.co2      1 MOL1        -0.6703
       3    O2      18.645036   19.254798   26.518497 O.co2      1 MOL1        -0.6703
       4    C2      20.806694   20.158991   26.250382 C.3        1 MOL1        -0.1963
       5    H1      21.828562   19.821168   26.460724 H          1 MOL1         0.0750
       6    H2      20.580112   20.944438   26.980645 H          1 MOL1         0.0750
       7    C3      20.720134   20.760470   24.819441 C.3        1 MOL1        -0.1860
       8    H3      19.669649   20.896966   24.530207 H          1 MOL1         0.0752
       9    H4      21.151604   21.769828   24.853178 H          1 MOL1         0.0752
      10    C4      21.488227   19.962008   23.734037 C.3        1 MOL1        -0.1858
      11    H5      22.536038   19.855897   24.045713 H          1 MOL1         0.0752
      12    H6      21.515186   20.558064   22.812482 H          1 MOL1         0.0752
      13    C5      20.923306   18.556177   23.404590 C.3        1 MOL1        -0.1858
      14    H7      21.557105   18.094880   22.636243 H          1 MOL1         0.0752
      15    H8      21.021943   17.909044   24.284995 H          1 MOL1         0.0752
      16    C6      19.447564   18.531468   22.925974 C.3        1 MOL1        -0.1858
      17    H9      18.794047   18.852536   23.747658 H          1 MOL1         0.0752
      18    H10     19.166096   17.491207   22.714394 H          1 MOL1         0.0752
      19    C7      19.144260   19.395388   21.677016 C.3        1 MOL1        -0.1834
      20    H11     18.071075   19.322753   21.453792 H          1 MOL1         0.0752
      21    H12     19.338364   20.454033   21.894288 H          1 MOL1         0.0752
      22    C8      19.942321   18.964236   20.427471 C.3        1 MOL1        -0.2849
      23    H13     19.776380   17.902713   20.202641 H          1 MOL1         0.0764
      24    H14     19.631182   19.548735   19.552114 H          1 MOL1         0.0764
      25    H15     21.018904   19.122571   20.568085 H          1 MOL1         0.0764
@<TRIPOS>BOND
    1     1     2    1
    2     1     3    2
    3     1     4    1
    4     4     5    1
    5     4     6    1
    6     4     7    1
    7     7     8    1
    8     7     9    1
    9     7    10    1
   10    10    11    1
   11    10    12    1
   12    10    13    1
   13    13    14    1
   14    13    15    1
   15    13    16    1
   16    16    17    1
   17    16    18    1
   18    16    19    1
   19    19    20    1
   20    19    21    1
   21    19    22    1
   22    22    23    1
   23    22    24    1
   24    22    25    1
@<TRIPOS>SUBSTRUCTURE
       1 MOL1            1 RESIDUE      1      MOL     
@<SCITEGIC>MOL_PROPERTY
VM2 Rank
SciTegic.value.IntegerValue
173

@<SCITEGIC>MOL_PROPERTY
Conf_Id
SciTegic.value.IntegerValue
87

@<SCITEGIC>MOL_PROPERTY
Probability
SciTegic.value.DoubleValue
0.00

@<SCITEGIC>MOL_PROPERTY
Sum Probability
SciTegic.value.DoubleValue
100.00

@<SCITEGIC>MOL_PROPERTY
Delta G
SciTegic.value.DoubleValue
7.327

@<SCITEGIC>MOL_PROPERTY
G
SciTegic.value.DoubleValue
-0.635

@<SCITEGIC>MOL_PROPERTY
E
SciTegic.value.DoubleValue
-26.920

@<SCITEGIC>MOL_PROPERTY
-TS
SciTegic.value.DoubleValue
26.285

@<SCITEGIC>MOL_PROPERTY
U+W
SciTegic.value.DoubleValue
-47.488

@<SCITEGIC>MOL_PROPERTY
U
SciTegic.value.DoubleValue
13.324

@<SCITEGIC>MOL_PROPERTY
W
SciTegic.value.DoubleValue
-60.812

@<SCITEGIC>MOL_PROPERTY
W(PB)
SciTegic.value.DoubleValue
-63.140

@<SCITEGIC>MOL_PROPERTY
W(SA)
SciTegic.value.DoubleValue
2.328

@<SCITEGIC>MOL_PROPERTY
Valence
SciTegic.value.DoubleValue
10.989

@<SCITEGIC>MOL_PROPERTY
Coulomb
SciTegic.value.DoubleValue
2.085

@<SCITEGIC>MOL_PROPERTY
VdW
SciTegic.value.DoubleValue
0.250

@<SCITEGIC>MOL_PROPERTY
VdW6
SciTegic.value.DoubleValue
-13.143

@<SCITEGIC>MOL_PROPERTY
VdW12
SciTegic.value.DoubleValue
13.393

@<SCITEGIC>MOL_PROPERTY
Bond
SciTegic.value.DoubleValue
0.321

@<SCITEGIC>MOL_PROPERTY
Angle
SciTegic.value.DoubleValue
4.360

@<SCITEGIC>MOL_PROPERTY
Pdih
SciTegic.value.DoubleValue
6.292

@<SCITEGIC>MOL_PROPERTY
Idih
SciTegic.value.DoubleValue
0.016

@<SCITEGIC>MOL_PROPERTY
Tether
SciTegic.value.DoubleValue
0.000

@<TRIPOS>MOLECULE
guest-8_vm2.mol2 : vm2 ligand conformer 174
          25          24           1
SMALL
USER_CHARGES
 
@<TRIPOS>ATOM
       1    C1      20.837198   19.397356   26.581519 C.2        1 MOL1         0.6168
       2    O1      21.695410   20.184336   26.234267 O.co2      1 MOL1        -0.6703
       3    O2      20.545956   19.187521   27.742641 O.co2      1 MOL1        -0.6703
       4    C2      20.065850   18.648798   25.500690 C.3        1 MOL1        -0.1963
       5    H1      19.766092   17.676565   25.909432 H          1 MOL1         0.0750
       6    H2      20.756318   18.447249   24.676342 H          1 MOL1         0.0750
       7    C3      18.816287   19.426326   25.009008 C.3        1 MOL1        -0.1860
       8    H3      18.152621   19.573345   25.872290 H          1 MOL1         0.0752
       9    H4      19.098133   20.432413   24.670542 H          1 MOL1         0.0752
      10    C4      18.026165   18.687977   23.900016 C.3        1 MOL1        -0.1858
      11    H5      16.960106   18.910318   24.045007 H          1 MOL1         0.0752
      12    H6      18.120138   17.600737   24.026013 H          1 MOL1         0.0752
      13    C5      18.383508   19.088225   22.443965 C.3        1 MOL1        -0.1858
      14    H7      17.660825   18.589297   21.783919 H          1 MOL1         0.0752
      15    H8      18.220317   20.164771   22.298367 H          1 MOL1         0.0752
      16    C6      19.804377   18.692641   21.970671 C.3        1 MOL1        -0.1858
      17    H9      19.750667   18.413556   20.909497 H          1 MOL1         0.0752
      18    H10     20.143242   17.793450   22.501757 H          1 MOL1         0.0752
      19    C7      20.837817   19.834500   22.110306 C.3        1 MOL1        -0.1834
      20    H11     20.517253   20.695317   21.507673 H          1 MOL1         0.0752
      21    H12     20.892129   20.183522   23.148685 H          1 MOL1         0.0752
      22    C8      22.240432   19.386319   21.652918 C.3        1 MOL1        -0.2849
      23    H13     22.959774   20.209776   21.749930 H          1 MOL1         0.0764
      24    H14     22.601594   18.548046   22.262959 H          1 MOL1         0.0764
      25    H15     22.228807   19.067282   20.602553 H          1 MOL1         0.0764
@<TRIPOS>BOND
    1     1     2    1
    2     1     3    2
    3     1     4    1
    4     4     5    1
    5     4     6    1
    6     4     7    1
    7     7     8    1
    8     7     9    1
    9     7    10    1
   10    10    11    1
   11    10    12    1
   12    10    13    1
   13    13    14    1
   14    13    15    1
   15    13    16    1
   16    16    17    1
   17    16    18    1
   18    16    19    1
   19    19    20    1
   20    19    21    1
   21    19    22    1
   22    22    23    1
   23    22    24    1
   24    22    25    1
@<TRIPOS>SUBSTRUCTURE
       1 MOL1            1 RESIDUE      1      MOL     
@<SCITEGIC>MOL_PROPERTY
VM2 Rank
SciTegic.value.IntegerValue
174

@<SCITEGIC>MOL_PROPERTY
Conf_Id
SciTegic.value.IntegerValue
537

@<SCITEGIC>MOL_PROPERTY
Probability
SciTegic.value.DoubleValue
0.00

@<SCITEGIC>MOL_PROPERTY
Sum Probability
SciTegic.value.DoubleValue
100.00

@<SCITEGIC>MOL_PROPERTY
Delta G
SciTegic.value.DoubleValue
7.439

@<SCITEGIC>MOL_PROPERTY
G
SciTegic.value.DoubleValue
-0.524

@<SCITEGIC>MOL_PROPERTY
E
SciTegic.value.DoubleValue
-25.860

@<SCITEGIC>MOL_PROPERTY
-TS
SciTegic.value.DoubleValue
25.336

@<SCITEGIC>MOL_PROPERTY
U+W
SciTegic.value.DoubleValue
-46.427

@<SCITEGIC>MOL_PROPERTY
U
SciTegic.value.DoubleValue
13.989

@<SCITEGIC>MOL_PROPERTY
W
SciTegic.value.DoubleValue
-60.416

@<SCITEGIC>MOL_PROPERTY
W(PB)
SciTegic.value.DoubleValue
-62.802

@<SCITEGIC>MOL_PROPERTY
W(SA)
SciTegic.value.DoubleValue
2.385

@<SCITEGIC>MOL_PROPERTY
Valence
SciTegic.value.DoubleValue
13.108

@<SCITEGIC>MOL_PROPERTY
Coulomb
SciTegic.value.DoubleValue
0.471

@<SCITEGIC>MOL_PROPERTY
VdW
SciTegic.value.DoubleValue
0.410

@<SCITEGIC>MOL_PROPERTY
VdW6
SciTegic.value.DoubleValue
-11.098

@<SCITEGIC>MOL_PROPERTY
VdW12
SciTegic.value.DoubleValue
11.508

@<SCITEGIC>MOL_PROPERTY
Bond
SciTegic.value.DoubleValue
0.254

@<SCITEGIC>MOL_PROPERTY
Angle
SciTegic.value.DoubleValue
3.732

@<SCITEGIC>MOL_PROPERTY
Pdih
SciTegic.value.DoubleValue
9.121

@<SCITEGIC>MOL_PROPERTY
Idih
SciTegic.value.DoubleValue
0.001

@<SCITEGIC>MOL_PROPERTY
Tether
SciTegic.value.DoubleValue
0.000

@<TRIPOS>MOLECULE
guest-8_vm2.mol2 : vm2 ligand conformer 175
          25          24           1
SMALL
USER_CHARGES
 
@<TRIPOS>ATOM
       1    C1      20.522101   19.869701   26.246155 C.2        1 MOL1         0.6168
       2    O1      21.412613   20.482486   25.691241 O.co2      1 MOL1        -0.6703
       3    O2      19.705676   20.392702   26.979770 O.co2      1 MOL1        -0.6703
       4    C2      20.467541   18.353488   26.066127 C.3        1 MOL1        -0.1963
       5    H1      20.703725   17.908981   27.039621 H          1 MOL1         0.0750
       6    H2      21.267242   18.045927   25.383396 H          1 MOL1         0.0750
       7    C3      19.097205   17.810742   25.577384 C.3        1 MOL1        -0.1860
       8    H3      19.120320   16.712749   25.589242 H          1 MOL1         0.0752
       9    H4      18.325547   18.105136   26.302148 H          1 MOL1         0.0752
      10    C4      18.666616   18.295708   24.169739 C.3        1 MOL1        -0.1858
      11    H5      18.609191   19.391291   24.153099 H          1 MOL1         0.0752
      12    H6      17.640283   17.943171   23.999554 H          1 MOL1         0.0752
      13    C5      19.552678   17.762708   23.012011 C.3        1 MOL1        -0.1858
      14    H7      20.035524   16.825935   23.321435 H          1 MOL1         0.0752
      15    H8      18.907478   17.495371   22.164061 H          1 MOL1         0.0752
      16    C6      20.631190   18.754292   22.508981 C.3        1 MOL1        -0.1858
      17    H9      21.327504   18.209053   21.857608 H          1 MOL1         0.0752
      18    H10     21.226386   19.129628   23.350158 H          1 MOL1         0.0752
      19    C7      20.043004   19.944975   21.717521 C.3        1 MOL1        -0.1834
      20    H11     19.439705   19.571144   20.878920 H          1 MOL1         0.0752
      21    H12     19.371367   20.532246   22.356856 H          1 MOL1         0.0752
      22    C8      21.154374   20.867198   21.177070 C.3        1 MOL1        -0.2849
      23    H13     20.722533   21.707942   20.618888 H          1 MOL1         0.0764
      24    H14     21.754442   21.278478   21.999700 H          1 MOL1         0.0764
      25    H15     21.825915   20.320646   20.502160 H          1 MOL1         0.0764
@<TRIPOS>BOND
    1     1     2    1
    2     1     3    2
    3     1     4    1
    4     4     5    1
    5     4     6    1
    6     4     7    1
    7     7     8    1
    8     7     9    1
    9     7    10    1
   10    10    11    1
   11    10    12    1
   12    10    13    1
   13    13    14    1
   14    13    15    1
   15    13    16    1
   16    16    17    1
   17    16    18    1
   18    16    19    1
   19    19    20    1
   20    19    21    1
   21    19    22    1
   22    22    23    1
   23    22    24    1
   24    22    25    1
@<TRIPOS>SUBSTRUCTURE
       1 MOL1            1 RESIDUE      1      MOL     
@<SCITEGIC>MOL_PROPERTY
VM2 Rank
SciTegic.value.IntegerValue
175

@<SCITEGIC>MOL_PROPERTY
Conf_Id
SciTegic.value.IntegerValue
1115

@<SCITEGIC>MOL_PROPERTY
Probability
SciTegic.value.DoubleValue
0.00

@<SCITEGIC>MOL_PROPERTY
Sum Probability
SciTegic.value.DoubleValue
100.00

@<SCITEGIC>MOL_PROPERTY
Delta G
SciTegic.value.DoubleValue
7.540

@<SCITEGIC>MOL_PROPERTY
G
SciTegic.value.DoubleValue
-0.422

@<SCITEGIC>MOL_PROPERTY
E
SciTegic.value.DoubleValue
-25.624

@<SCITEGIC>MOL_PROPERTY
-TS
SciTegic.value.DoubleValue
25.202

@<SCITEGIC>MOL_PROPERTY
U+W
SciTegic.value.DoubleValue
-46.192

@<SCITEGIC>MOL_PROPERTY
U
SciTegic.value.DoubleValue
15.107

@<SCITEGIC>MOL_PROPERTY
W
SciTegic.value.DoubleValue
-61.299

@<SCITEGIC>MOL_PROPERTY
W(PB)
SciTegic.value.DoubleValue
-63.654

@<SCITEGIC>MOL_PROPERTY
W(SA)
SciTegic.value.DoubleValue
2.355

@<SCITEGIC>MOL_PROPERTY
Valence
SciTegic.value.DoubleValue
11.932

@<SCITEGIC>MOL_PROPERTY
Coulomb
SciTegic.value.DoubleValue
2.763

@<SCITEGIC>MOL_PROPERTY
VdW
SciTegic.value.DoubleValue
0.412

@<SCITEGIC>MOL_PROPERTY
VdW6
SciTegic.value.DoubleValue
-11.607

@<SCITEGIC>MOL_PROPERTY
VdW12
SciTegic.value.DoubleValue
12.019

@<SCITEGIC>MOL_PROPERTY
Bond
SciTegic.value.DoubleValue
0.273

@<SCITEGIC>MOL_PROPERTY
Angle
SciTegic.value.DoubleValue
3.596

@<SCITEGIC>MOL_PROPERTY
Pdih
SciTegic.value.DoubleValue
8.057

@<SCITEGIC>MOL_PROPERTY
Idih
SciTegic.value.DoubleValue
0.006

@<SCITEGIC>MOL_PROPERTY
Tether
SciTegic.value.DoubleValue
0.000

@<TRIPOS>MOLECULE
guest-8_vm2.mol2 : vm2 ligand conformer 176
          25          24           1
SMALL
USER_CHARGES
 
@<TRIPOS>ATOM
       1    C1      19.877655   19.567869   26.734222 C.2        1 MOL1         0.6168
       2    O1      20.873831   20.018208   27.265778 O.co2      1 MOL1        -0.6703
       3    O2      18.834018   20.182994   26.635691 O.co2      1 MOL1        -0.6703
       4    C2      19.916433   18.128964   26.223024 C.3        1 MOL1        -0.1963
       5    H1      18.928589   17.865463   25.826133 H          1 MOL1         0.0750
       6    H2      20.081778   17.493691   27.100810 H          1 MOL1         0.0750
       7    C3      21.017543   17.830117   25.166987 C.3        1 MOL1        -0.1860
       8    H3      21.972064   18.271102   25.486257 H          1 MOL1         0.0752
       9    H4      21.179629   16.744073   25.143113 H          1 MOL1         0.0752
      10    C4      20.675517   18.288329   23.727470 C.3        1 MOL1        -0.1858
      11    H5      19.726654   17.830578   23.419233 H          1 MOL1         0.0752
      12    H6      21.448187   17.900334   23.050005 H          1 MOL1         0.0752
      13    C5      20.591311   19.823079   23.560414 C.3        1 MOL1        -0.1858
      14    H7      19.696528   20.202677   24.070158 H          1 MOL1         0.0752
      15    H8      21.452961   20.284976   24.061533 H          1 MOL1         0.0752
      16    C6      20.569232   20.301186   22.086572 C.3        1 MOL1        -0.1858
      17    H9      21.492813   19.996626   21.575711 H          1 MOL1         0.0752
      18    H10     20.583003   21.399594   22.097681 H          1 MOL1         0.0752
      19    C7      19.330459   19.845408   21.275275 C.3        1 MOL1        -0.1834
      20    H11     18.462842   19.728903   21.939358 H          1 MOL1         0.0752
      21    H12     19.066412   20.640671   20.564581 H          1 MOL1         0.0752
      22    C8      19.567000   18.547844   20.470567 C.3        1 MOL1        -0.2849
      23    H13     20.399496   18.671461   19.765817 H          1 MOL1         0.0764
      24    H14     19.798587   17.698642   21.122940 H          1 MOL1         0.0764
      25    H15     18.672133   18.288338   19.890350 H          1 MOL1         0.0764
@<TRIPOS>BOND
    1     1     2    1
    2     1     3    2
    3     1     4    1
    4     4     5    1
    5     4     6    1
    6     4     7    1
    7     7     8    1
    8     7     9    1
    9     7    10    1
   10    10    11    1
   11    10    12    1
   12    10    13    1
   13    13    14    1
   14    13    15    1
   15    13    16    1
   16    16    17    1
   17    16    18    1
   18    16    19    1
   19    19    20    1
   20    19    21    1
   21    19    22    1
   22    22    23    1
   23    22    24    1
   24    22    25    1
@<TRIPOS>SUBSTRUCTURE
       1 MOL1            1 RESIDUE      1      MOL     
@<SCITEGIC>MOL_PROPERTY
VM2 Rank
SciTegic.value.IntegerValue
176

@<SCITEGIC>MOL_PROPERTY
Conf_Id
SciTegic.value.IntegerValue
1050

@<SCITEGIC>MOL_PROPERTY
Probability
SciTegic.value.DoubleValue
0.00

@<SCITEGIC>MOL_PROPERTY
Sum Probability
SciTegic.value.DoubleValue
100.00

@<SCITEGIC>MOL_PROPERTY
Delta G
SciTegic.value.DoubleValue
7.570

@<SCITEGIC>MOL_PROPERTY
G
SciTegic.value.DoubleValue
-0.393

@<SCITEGIC>MOL_PROPERTY
E
SciTegic.value.DoubleValue
-25.799

@<SCITEGIC>MOL_PROPERTY
-TS
SciTegic.value.DoubleValue
25.407

@<SCITEGIC>MOL_PROPERTY
U+W
SciTegic.value.DoubleValue
-46.367

@<SCITEGIC>MOL_PROPERTY
U
SciTegic.value.DoubleValue
14.274

@<SCITEGIC>MOL_PROPERTY
W
SciTegic.value.DoubleValue
-60.640

@<SCITEGIC>MOL_PROPERTY
W(PB)
SciTegic.value.DoubleValue
-63.030

@<SCITEGIC>MOL_PROPERTY
W(SA)
SciTegic.value.DoubleValue
2.389

@<SCITEGIC>MOL_PROPERTY
Valence
SciTegic.value.DoubleValue
12.340

@<SCITEGIC>MOL_PROPERTY
Coulomb
SciTegic.value.DoubleValue
1.174

@<SCITEGIC>MOL_PROPERTY
VdW
SciTegic.value.DoubleValue
0.759

@<SCITEGIC>MOL_PROPERTY
VdW6
SciTegic.value.DoubleValue
-11.600

@<SCITEGIC>MOL_PROPERTY
VdW12
SciTegic.value.DoubleValue
12.360

@<SCITEGIC>MOL_PROPERTY
Bond
SciTegic.value.DoubleValue
0.276

@<SCITEGIC>MOL_PROPERTY
Angle
SciTegic.value.DoubleValue
3.898

@<SCITEGIC>MOL_PROPERTY
Pdih
SciTegic.value.DoubleValue
8.159

@<SCITEGIC>MOL_PROPERTY
Idih
SciTegic.value.DoubleValue
0.006

@<SCITEGIC>MOL_PROPERTY
Tether
SciTegic.value.DoubleValue
0.000

@<TRIPOS>MOLECULE
guest-8_vm2.mol2 : vm2 ligand conformer 177
          25          24           1
SMALL
USER_CHARGES
 
@<TRIPOS>ATOM
       1    C1      20.081955   19.029085   26.880610 C.2        1 MOL1         0.6168
       2    O1      20.473876   17.883874   26.990948 O.co2      1 MOL1        -0.6703
       3    O2      18.994318   19.406078   27.271177 O.co2      1 MOL1        -0.6703
       4    C2      21.032822   20.060391   26.276418 C.3        1 MOL1        -0.1963
       5    H1      21.983524   19.570398   26.033880 H          1 MOL1         0.0750
       6    H2      21.247215   20.783226   27.072048 H          1 MOL1         0.0750
       7    C3      20.486501   20.822199   25.035854 C.3        1 MOL1        -0.1860
       8    H3      19.441059   21.115720   25.204479 H          1 MOL1         0.0752
       9    H4      21.051018   21.759677   24.941650 H          1 MOL1         0.0752
      10    C4      20.615924   20.060708   23.692881 C.3        1 MOL1        -0.1858
      11    H5      21.658376   19.750019   23.540669 H          1 MOL1         0.0752
      12    H6      20.378702   20.768586   22.889091 H          1 MOL1         0.0752
      13    C5      19.680474   18.835048   23.568783 C.3        1 MOL1        -0.1858
      14    H7      19.899088   18.125737   24.375617 H          1 MOL1         0.0752
      15    H8      18.638734   19.153578   23.709843 H          1 MOL1         0.0752
      16    C6      19.810112   18.070142   22.227216 C.3        1 MOL1        -0.1858
      17    H9      19.146397   17.196358   22.280406 H          1 MOL1         0.0752
      18    H10     20.826198   17.665783   22.122550 H          1 MOL1         0.0752
      19    C7      19.426238   18.891317   20.970804 C.3        1 MOL1        -0.1834
      20    H11     18.887765   18.235872   20.272432 H          1 MOL1         0.0752
      21    H12     18.724515   19.693219   21.238716 H          1 MOL1         0.0752
      22    C8      20.650780   19.475158   20.231309 C.3        1 MOL1        -0.2849
      23    H13     21.315879   18.673235   19.885395 H          1 MOL1         0.0764
      24    H14     20.331105   20.048834   19.351818 H          1 MOL1         0.0764
      25    H15     21.234768   20.143766   20.874166 H          1 MOL1         0.0764
@<TRIPOS>BOND
    1     1     2    1
    2     1     3    2
    3     1     4    1
    4     4     5    1
    5     4     6    1
    6     4     7    1
    7     7     8    1
    8     7     9    1
    9     7    10    1
   10    10    11    1
   11    10    12    1
   12    10    13    1
   13    13    14    1
   14    13    15    1
   15    13    16    1
   16    16    17    1
   17    16    18    1
   18    16    19    1
   19    19    20    1
   20    19    21    1
   21    19    22    1
   22    22    23    1
   23    22    24    1
   24    22    25    1
@<TRIPOS>SUBSTRUCTURE
       1 MOL1            1 RESIDUE      1      MOL     
@<SCITEGIC>MOL_PROPERTY
VM2 Rank
SciTegic.value.IntegerValue
177

@<SCITEGIC>MOL_PROPERTY
Conf_Id
SciTegic.value.IntegerValue
810

@<SCITEGIC>MOL_PROPERTY
Probability
SciTegic.value.DoubleValue
0.00

@<SCITEGIC>MOL_PROPERTY
Sum Probability
SciTegic.value.DoubleValue
100.00

@<SCITEGIC>MOL_PROPERTY
Delta G
SciTegic.value.DoubleValue
7.652

@<SCITEGIC>MOL_PROPERTY
G
SciTegic.value.DoubleValue
-0.311

@<SCITEGIC>MOL_PROPERTY
E
SciTegic.value.DoubleValue
-25.489

@<SCITEGIC>MOL_PROPERTY
-TS
SciTegic.value.DoubleValue
25.178

@<SCITEGIC>MOL_PROPERTY
U+W
SciTegic.value.DoubleValue
-46.056

@<SCITEGIC>MOL_PROPERTY
U
SciTegic.value.DoubleValue
14.422

@<SCITEGIC>MOL_PROPERTY
W
SciTegic.value.DoubleValue
-60.479

@<SCITEGIC>MOL_PROPERTY
W(PB)
SciTegic.value.DoubleValue
-62.877

@<SCITEGIC>MOL_PROPERTY
W(SA)
SciTegic.value.DoubleValue
2.398

@<SCITEGIC>MOL_PROPERTY
Valence
SciTegic.value.DoubleValue
12.698

@<SCITEGIC>MOL_PROPERTY
Coulomb
SciTegic.value.DoubleValue
0.771

@<SCITEGIC>MOL_PROPERTY
VdW
SciTegic.value.DoubleValue
0.953

@<SCITEGIC>MOL_PROPERTY
VdW6
SciTegic.value.DoubleValue
-11.273

@<SCITEGIC>MOL_PROPERTY
VdW12
SciTegic.value.DoubleValue
12.226

@<SCITEGIC>MOL_PROPERTY
Bond
SciTegic.value.DoubleValue
0.285

@<SCITEGIC>MOL_PROPERTY
Angle
SciTegic.value.DoubleValue
4.019

@<SCITEGIC>MOL_PROPERTY
Pdih
SciTegic.value.DoubleValue
8.388

@<SCITEGIC>MOL_PROPERTY
Idih
SciTegic.value.DoubleValue
0.006

@<SCITEGIC>MOL_PROPERTY
Tether
SciTegic.value.DoubleValue
0.000

@<TRIPOS>MOLECULE
guest-8_vm2.mol2 : vm2 ligand conformer 178
          25          24           1
SMALL
USER_CHARGES
 
@<TRIPOS>ATOM
       1    C1      20.502843   19.211207   26.751696 C.2        1 MOL1         0.6168
       2    O1      21.346066   20.081583   26.847059 O.co2      1 MOL1        -0.6703
       3    O2      20.721823   18.037710   26.980328 O.co2      1 MOL1        -0.6703
       4    C2      19.075414   19.620915   26.393724 C.3        1 MOL1        -0.1963
       5    H1      18.728353   20.270272   27.205712 H          1 MOL1         0.0750
       6    H2      18.434724   18.730931   26.407787 H          1 MOL1         0.0750
       7    C3      18.921355   20.374231   25.042491 C.3        1 MOL1        -0.1860
       8    H3      17.971001   20.924303   25.066625 H          1 MOL1         0.0752
       9    H4      19.708361   21.135104   24.946271 H          1 MOL1         0.0752
      10    C4      18.908391   19.464709   23.788875 C.3        1 MOL1        -0.1858
      11    H5      18.644462   20.083397   22.922968 H          1 MOL1         0.0752
      12    H6      18.107080   18.719386   23.883328 H          1 MOL1         0.0752
      13    C5      20.252199   18.744340   23.520296 C.3        1 MOL1        -0.1858
      14    H7      21.089760   19.450527   23.602324 H          1 MOL1         0.0752
      15    H8      20.405857   17.992115   24.304348 H          1 MOL1         0.0752
      16    C6      20.295372   18.022909   22.149108 C.3        1 MOL1        -0.1858
      17    H9      19.283370   17.723495   21.844041 H          1 MOL1         0.0752
      18    H10     20.858849   17.088001   22.272842 H          1 MOL1         0.0752
      19    C7      20.976765   18.831429   21.017260 C.3        1 MOL1        -0.1834
      20    H11     22.015266   19.053761   21.298916 H          1 MOL1         0.0752
      21    H12     21.030302   18.199723   20.119931 H          1 MOL1         0.0752
      22    C8      20.252772   20.144969   20.655162 C.3        1 MOL1        -0.2849
      23    H13     20.722298   20.613881   19.780867 H          1 MOL1         0.0764
      24    H14     19.197934   19.959704   20.414572 H          1 MOL1         0.0764
      25    H15     20.300885   20.864157   21.482484 H          1 MOL1         0.0764
@<TRIPOS>BOND
    1     1     2    1
    2     1     3    2
    3     1     4    1
    4     4     5    1
    5     4     6    1
    6     4     7    1
    7     7     8    1
    8     7     9    1
    9     7    10    1
   10    10    11    1
   11    10    12    1
   12    10    13    1
   13    13    14    1
   14    13    15    1
   15    13    16    1
   16    16    17    1
   17    16    18    1
   18    16    19    1
   19    19    20    1
   20    19    21    1
   21    19    22    1
   22    22    23    1
   23    22    24    1
   24    22    25    1
@<TRIPOS>SUBSTRUCTURE
       1 MOL1            1 RESIDUE      1      MOL     
@<SCITEGIC>MOL_PROPERTY
VM2 Rank
SciTegic.value.IntegerValue
178

@<SCITEGIC>MOL_PROPERTY
Conf_Id
SciTegic.value.IntegerValue
805

@<SCITEGIC>MOL_PROPERTY
Probability
SciTegic.value.DoubleValue
0.00

@<SCITEGIC>MOL_PROPERTY
Sum Probability
SciTegic.value.DoubleValue
100.00

@<SCITEGIC>MOL_PROPERTY
Delta G
SciTegic.value.DoubleValue
7.727

@<SCITEGIC>MOL_PROPERTY
G
SciTegic.value.DoubleValue
-0.235

@<SCITEGIC>MOL_PROPERTY
E
SciTegic.value.DoubleValue
-25.681

@<SCITEGIC>MOL_PROPERTY
-TS
SciTegic.value.DoubleValue
25.446

@<SCITEGIC>MOL_PROPERTY
U+W
SciTegic.value.DoubleValue
-46.249

@<SCITEGIC>MOL_PROPERTY
U
SciTegic.value.DoubleValue
14.482

@<SCITEGIC>MOL_PROPERTY
W
SciTegic.value.DoubleValue
-60.731

@<SCITEGIC>MOL_PROPERTY
W(PB)
SciTegic.value.DoubleValue
-63.110

@<SCITEGIC>MOL_PROPERTY
W(SA)
SciTegic.value.DoubleValue
2.379

@<SCITEGIC>MOL_PROPERTY
Valence
SciTegic.value.DoubleValue
12.477

@<SCITEGIC>MOL_PROPERTY
Coulomb
SciTegic.value.DoubleValue
1.221

@<SCITEGIC>MOL_PROPERTY
VdW
SciTegic.value.DoubleValue
0.784

@<SCITEGIC>MOL_PROPERTY
VdW6
SciTegic.value.DoubleValue
-11.566

@<SCITEGIC>MOL_PROPERTY
VdW12
SciTegic.value.DoubleValue
12.350

@<SCITEGIC>MOL_PROPERTY
Bond
SciTegic.value.DoubleValue
0.279

@<SCITEGIC>MOL_PROPERTY
Angle
SciTegic.value.DoubleValue
3.852

@<SCITEGIC>MOL_PROPERTY
Pdih
SciTegic.value.DoubleValue
8.338

@<SCITEGIC>MOL_PROPERTY
Idih
SciTegic.value.DoubleValue
0.007

@<SCITEGIC>MOL_PROPERTY
Tether
SciTegic.value.DoubleValue
0.000

@<TRIPOS>MOLECULE
guest-8_vm2.mol2 : vm2 ligand conformer 179
          25          24           1
SMALL
USER_CHARGES
 
@<TRIPOS>ATOM
       1    C1      19.746346   19.631978   26.529131 C.2        1 MOL1         0.6168
       2    O1      20.653294   20.151656   27.149754 O.co2      1 MOL1        -0.6703
       3    O2      18.716271   20.208049   26.238833 O.co2      1 MOL1        -0.6703
       4    C2      19.876287   18.156957   26.154358 C.3        1 MOL1        -0.1963
       5    H1      18.959648   17.837304   25.644035 H          1 MOL1         0.0750
       6    H2      19.919557   17.602008   27.098583 H          1 MOL1         0.0750
       7    C3      21.122727   17.796177   25.297927 C.3        1 MOL1        -0.1860
       8    H3      22.013851   18.296776   25.701404 H          1 MOL1         0.0752
       9    H4      21.306831   16.718794   25.406204 H          1 MOL1         0.0752
      10    C4      20.979333   18.099578   23.785821 C.3        1 MOL1        -0.1858
      11    H5      20.087047   17.594869   23.397430 H          1 MOL1         0.0752
      12    H6      21.835205   17.647687   23.266431 H          1 MOL1         0.0752
      13    C5      20.939103   19.610693   23.448296 C.3        1 MOL1        -0.1858
      14    H7      20.054737   20.085543   23.890721 H          1 MOL1         0.0752
      15    H8      21.811103   20.089436   23.914316 H          1 MOL1         0.0752
      16    C6      20.973311   19.901436   21.925705 C.3        1 MOL1        -0.1858
      17    H9      21.524104   19.111512   21.397353 H          1 MOL1         0.0752
      18    H10     21.550323   20.822852   21.768160 H          1 MOL1         0.0752
      19    C7      19.583380   20.106840   21.273789 C.3        1 MOL1        -0.1834
      20    H11     19.079188   20.962098   21.744609 H          1 MOL1         0.0752
      21    H12     19.729968   20.378738   20.219426 H          1 MOL1         0.0752
      22    C8      18.662947   18.870636   21.342386 C.3        1 MOL1        -0.2849
      23    H13     18.347263   18.671195   22.374041 H          1 MOL1         0.0764
      24    H14     17.756176   19.033686   20.745838 H          1 MOL1         0.0764
      25    H15     19.170142   17.978697   20.952389 H          1 MOL1         0.0764
@<TRIPOS>BOND
    1     1     2    1
    2     1     3    2
    3     1     4    1
    4     4     5    1
    5     4     6    1
    6     4     7    1
    7     7     8    1
    8     7     9    1
    9     7    10    1
   10    10    11    1
   11    10    12    1
   12    10    13    1
   13    13    14    1
   14    13    15    1
   15    13    16    1
   16    16    17    1
   17    16    18    1
   18    16    19    1
   19    19    20    1
   20    19    21    1
   21    19    22    1
   22    22    23    1
   23    22    24    1
   24    22    25    1
@<TRIPOS>SUBSTRUCTURE
       1 MOL1            1 RESIDUE      1      MOL     
@<SCITEGIC>MOL_PROPERTY
VM2 Rank
SciTegic.value.IntegerValue
179

@<SCITEGIC>MOL_PROPERTY
Conf_Id
SciTegic.value.IntegerValue
429

@<SCITEGIC>MOL_PROPERTY
Probability
SciTegic.value.DoubleValue
0.00

@<SCITEGIC>MOL_PROPERTY
Sum Probability
SciTegic.value.DoubleValue
100.00

@<SCITEGIC>MOL_PROPERTY
Delta G
SciTegic.value.DoubleValue
7.742

@<SCITEGIC>MOL_PROPERTY
G
SciTegic.value.DoubleValue
-0.221

@<SCITEGIC>MOL_PROPERTY
E
SciTegic.value.DoubleValue
-25.442

@<SCITEGIC>MOL_PROPERTY
-TS
SciTegic.value.DoubleValue
25.221

@<SCITEGIC>MOL_PROPERTY
U+W
SciTegic.value.DoubleValue
-46.010

@<SCITEGIC>MOL_PROPERTY
U
SciTegic.value.DoubleValue
15.042

@<SCITEGIC>MOL_PROPERTY
W
SciTegic.value.DoubleValue
-61.051

@<SCITEGIC>MOL_PROPERTY
W(PB)
SciTegic.value.DoubleValue
-63.402

@<SCITEGIC>MOL_PROPERTY
W(SA)
SciTegic.value.DoubleValue
2.351

@<SCITEGIC>MOL_PROPERTY
Valence
SciTegic.value.DoubleValue
12.413

@<SCITEGIC>MOL_PROPERTY
Coulomb
SciTegic.value.DoubleValue
1.927

@<SCITEGIC>MOL_PROPERTY
VdW
SciTegic.value.DoubleValue
0.702

@<SCITEGIC>MOL_PROPERTY
VdW6
SciTegic.value.DoubleValue
-11.648

@<SCITEGIC>MOL_PROPERTY
VdW12
SciTegic.value.DoubleValue
12.350

@<SCITEGIC>MOL_PROPERTY
Bond
SciTegic.value.DoubleValue
0.287

@<SCITEGIC>MOL_PROPERTY
Angle
SciTegic.value.DoubleValue
3.936

@<SCITEGIC>MOL_PROPERTY
Pdih
SciTegic.value.DoubleValue
8.183

@<SCITEGIC>MOL_PROPERTY
Idih
SciTegic.value.DoubleValue
0.007

@<SCITEGIC>MOL_PROPERTY
Tether
SciTegic.value.DoubleValue
0.000

@<TRIPOS>MOLECULE
guest-8_vm2.mol2 : vm2 ligand conformer 180
          25          24           1
SMALL
USER_CHARGES
 
@<TRIPOS>ATOM
       1    C1      20.503708   19.680294   26.520742 C.2        1 MOL1         0.6168
       2    O1      21.444961   20.382678   26.207880 O.co2      1 MOL1        -0.6703
       3    O2      19.552510   20.080763   27.163111 O.co2      1 MOL1        -0.6703
       4    C2      20.554331   18.200341   26.146287 C.3        1 MOL1        -0.1963
       5    H1      20.604168   17.645435   27.090211 H          1 MOL1         0.0750
       6    H2      21.492140   17.999682   25.614229 H          1 MOL1         0.0750
       7    C3      19.344511   17.682586   25.318328 C.3        1 MOL1        -0.1860
       8    H3      19.301649   16.590677   25.429099 H          1 MOL1         0.0752
       9    H4      18.406472   18.066176   25.743105 H          1 MOL1         0.0752
      10    C4      19.413058   17.999741   23.803804 C.3        1 MOL1        -0.1858
      11    H5      18.609514   17.442327   23.303709 H          1 MOL1         0.0752
      12    H6      20.352839   17.611691   23.393949 H          1 MOL1         0.0752
      13    C5      19.253615   19.503326   23.467931 C.3        1 MOL1        -0.1858
      14    H7      18.339184   19.868375   23.955075 H          1 MOL1         0.0752
      15    H8      20.080863   20.086948   23.890284 H          1 MOL1         0.0752
      16    C6      19.147120   19.785382   21.947048 C.3        1 MOL1        -0.1858
      17    H9      18.454550   20.626117   21.804630 H          1 MOL1         0.0752
      18    H10     18.688508   18.931383   21.430456 H          1 MOL1         0.0752
      19    C7      20.484150   20.164263   21.263019 C.3        1 MOL1        -0.1834
      20    H11     20.279562   20.414061   20.212856 H          1 MOL1         0.0752
      21    H12     20.886947   21.077073   21.723321 H          1 MOL1         0.0752
      22    C8      21.555035   19.054625   21.307849 C.3        1 MOL1        -0.2849
      23    H13     21.917604   18.898051   22.331456 H          1 MOL1         0.0764
      24    H14     21.155814   18.105161   20.928324 H          1 MOL1         0.0764
      25    H15     22.419588   19.330419   20.690456 H          1 MOL1         0.0764
@<TRIPOS>BOND
    1     1     2    1
    2     1     3    2
    3     1     4    1
    4     4     5    1
    5     4     6    1
    6     4     7    1
    7     7     8    1
    8     7     9    1
    9     7    10    1
   10    10    11    1
   11    10    12    1
   12    10    13    1
   13    13    14    1
   14    13    15    1
   15    13    16    1
   16    16    17    1
   17    16    18    1
   18    16    19    1
   19    19    20    1
   20    19    21    1
   21    19    22    1
   22    22    23    1
   23    22    24    1
   24    22    25    1
@<TRIPOS>SUBSTRUCTURE
       1 MOL1            1 RESIDUE      1      MOL     
@<SCITEGIC>MOL_PROPERTY
VM2 Rank
SciTegic.value.IntegerValue
180

@<SCITEGIC>MOL_PROPERTY
Conf_Id
SciTegic.value.IntegerValue
114

@<SCITEGIC>MOL_PROPERTY
Probability
SciTegic.value.DoubleValue
0.00

@<SCITEGIC>MOL_PROPERTY
Sum Probability
SciTegic.value.DoubleValue
100.00

@<SCITEGIC>MOL_PROPERTY
Delta G
SciTegic.value.DoubleValue
7.751

@<SCITEGIC>MOL_PROPERTY
G
SciTegic.value.DoubleValue
-0.212

@<SCITEGIC>MOL_PROPERTY
E
SciTegic.value.DoubleValue
-25.434

@<SCITEGIC>MOL_PROPERTY
-TS
SciTegic.value.DoubleValue
25.222

@<SCITEGIC>MOL_PROPERTY
U+W
SciTegic.value.DoubleValue
-46.001

@<SCITEGIC>MOL_PROPERTY
U
SciTegic.value.DoubleValue
15.040

@<SCITEGIC>MOL_PROPERTY
W
SciTegic.value.DoubleValue
-61.041

@<SCITEGIC>MOL_PROPERTY
W(PB)
SciTegic.value.DoubleValue
-63.404

@<SCITEGIC>MOL_PROPERTY
W(SA)
SciTegic.value.DoubleValue
2.363

@<SCITEGIC>MOL_PROPERTY
Valence
SciTegic.value.DoubleValue
12.413

@<SCITEGIC>MOL_PROPERTY
Coulomb
SciTegic.value.DoubleValue
1.924

@<SCITEGIC>MOL_PROPERTY
VdW
SciTegic.value.DoubleValue
0.703

@<SCITEGIC>MOL_PROPERTY
VdW6
SciTegic.value.DoubleValue
-11.648

@<SCITEGIC>MOL_PROPERTY
VdW12
SciTegic.value.DoubleValue
12.351

@<SCITEGIC>MOL_PROPERTY
Bond
SciTegic.value.DoubleValue
0.287

@<SCITEGIC>MOL_PROPERTY
Angle
SciTegic.value.DoubleValue
3.936

@<SCITEGIC>MOL_PROPERTY
Pdih
SciTegic.value.DoubleValue
8.183

@<SCITEGIC>MOL_PROPERTY
Idih
SciTegic.value.DoubleValue
0.007

@<SCITEGIC>MOL_PROPERTY
Tether
SciTegic.value.DoubleValue
0.000

@<TRIPOS>MOLECULE
guest-8_vm2.mol2 : vm2 ligand conformer 181
          25          24           1
SMALL
USER_CHARGES
 
@<TRIPOS>ATOM
       1    C1      19.811856   19.168353   26.759521 C.2        1 MOL1         0.6168
       2    O1      19.745176   17.977111   26.991508 O.co2      1 MOL1        -0.6703
       3    O2      18.869743   19.927746   26.875357 O.co2      1 MOL1        -0.6703
       4    C2      21.169034   19.751086   26.369580 C.3        1 MOL1        -0.1963
       5    H1      21.915119   18.947280   26.367751 H          1 MOL1         0.0750
       6    H2      21.451512   20.439594   27.174318 H          1 MOL1         0.0750
       7    C3      21.197715   20.515714   25.016225 C.3        1 MOL1        -0.1860
       8    H3      20.320575   21.173164   24.939094 H          1 MOL1         0.0752
       9    H4      22.072963   21.179240   25.019371 H          1 MOL1         0.0752
      10    C4      21.294484   19.612979   23.761371 C.3        1 MOL1        -0.1858
      11    H5      22.183950   18.972856   23.836329 H          1 MOL1         0.0752
      12    H6      21.459721   20.258342   22.890490 H          1 MOL1         0.0752
      13    C5      20.044512   18.731210   23.522755 C.3        1 MOL1        -0.1858
      14    H7      20.003442   17.966776   24.308980 H          1 MOL1         0.0752
      15    H8      19.127981   19.328218   23.625183 H          1 MOL1         0.0752
      16    C6      20.059464   18.008185   22.151810 C.3        1 MOL1        -0.1858
      17    H9      19.619326   17.010761   22.287071 H          1 MOL1         0.0752
      18    H10     21.093462   17.836225   21.822962 H          1 MOL1         0.0752
      19    C7      19.257046   18.724454   21.037287 C.3        1 MOL1        -0.1834
      20    H11     19.261510   18.089798   20.140454 H          1 MOL1         0.0752
      21    H12     18.205789   18.816648   21.343236 H          1 MOL1         0.0752
      22    C8      19.803972   20.117163   20.660587 C.3        1 MOL1        -0.2849
      23    H13     19.686255   20.825916   21.489937 H          1 MOL1         0.0764
      24    H14     20.867774   20.063825   20.395317 H          1 MOL1         0.0764
      25    H15     19.259771   20.523088   19.798152 H          1 MOL1         0.0764
@<TRIPOS>BOND
    1     1     2    1
    2     1     3    2
    3     1     4    1
    4     4     5    1
    5     4     6    1
    6     4     7    1
    7     7     8    1
    8     7     9    1
    9     7    10    1
   10    10    11    1
   11    10    12    1
   12    10    13    1
   13    13    14    1
   14    13    15    1
   15    13    16    1
   16    16    17    1
   17    16    18    1
   18    16    19    1
   19    19    20    1
   20    19    21    1
   21    19    22    1
   22    22    23    1
   23    22    24    1
   24    22    25    1
@<TRIPOS>SUBSTRUCTURE
       1 MOL1            1 RESIDUE      1      MOL     
@<SCITEGIC>MOL_PROPERTY
VM2 Rank
SciTegic.value.IntegerValue
181

@<SCITEGIC>MOL_PROPERTY
Conf_Id
SciTegic.value.IntegerValue
84

@<SCITEGIC>MOL_PROPERTY
Probability
SciTegic.value.DoubleValue
0.00

@<SCITEGIC>MOL_PROPERTY
Sum Probability
SciTegic.value.DoubleValue
100.00

@<SCITEGIC>MOL_PROPERTY
Delta G
SciTegic.value.DoubleValue
7.752

@<SCITEGIC>MOL_PROPERTY
G
SciTegic.value.DoubleValue
-0.210

@<SCITEGIC>MOL_PROPERTY
E
SciTegic.value.DoubleValue
-25.656

@<SCITEGIC>MOL_PROPERTY
-TS
SciTegic.value.DoubleValue
25.446

@<SCITEGIC>MOL_PROPERTY
U+W
SciTegic.value.DoubleValue
-46.224

@<SCITEGIC>MOL_PROPERTY
U
SciTegic.value.DoubleValue
14.482

@<SCITEGIC>MOL_PROPERTY
W
SciTegic.value.DoubleValue
-60.706

@<SCITEGIC>MOL_PROPERTY
W(PB)
SciTegic.value.DoubleValue
-63.083

@<SCITEGIC>MOL_PROPERTY
W(SA)
SciTegic.value.DoubleValue
2.377

@<SCITEGIC>MOL_PROPERTY
Valence
SciTegic.value.DoubleValue
12.477

@<SCITEGIC>MOL_PROPERTY
Coulomb
SciTegic.value.DoubleValue
1.221

@<SCITEGIC>MOL_PROPERTY
VdW
SciTegic.value.DoubleValue
0.784

@<SCITEGIC>MOL_PROPERTY
VdW6
SciTegic.value.DoubleValue
-11.566

@<SCITEGIC>MOL_PROPERTY
VdW12
SciTegic.value.DoubleValue
12.351

@<SCITEGIC>MOL_PROPERTY
Bond
SciTegic.value.DoubleValue
0.279

@<SCITEGIC>MOL_PROPERTY
Angle
SciTegic.value.DoubleValue
3.852

@<SCITEGIC>MOL_PROPERTY
Pdih
SciTegic.value.DoubleValue
8.339

@<SCITEGIC>MOL_PROPERTY
Idih
SciTegic.value.DoubleValue
0.007

@<SCITEGIC>MOL_PROPERTY
Tether
SciTegic.value.DoubleValue
0.000

@<TRIPOS>MOLECULE
guest-8_vm2.mol2 : vm2 ligand conformer 182
          25          24           1
SMALL
USER_CHARGES
 
@<TRIPOS>ATOM
       1    C1      20.226426   18.511906   26.014918 C.2        1 MOL1         0.6168
       2    O1      21.397935   18.195513   25.940692 O.co2      1 MOL1        -0.6703
       3    O2      19.308313   17.726770   25.879769 O.co2      1 MOL1        -0.6703
       4    C2      19.892377   19.946010   26.422342 C.3        1 MOL1        -0.1963
       5    H1      20.355915   20.102360   27.403255 H          1 MOL1         0.0750
       6    H2      18.809170   20.031798   26.570413 H          1 MOL1         0.0750
       7    C3      20.393288   21.047927   25.446489 C.3        1 MOL1        -0.1860
       8    H3      20.459537   21.989447   26.008085 H          1 MOL1         0.0752
       9    H4      21.418252   20.825539   25.121249 H          1 MOL1         0.0752
      10    C4      19.471975   21.299131   24.224108 C.3        1 MOL1        -0.1858
      11    H5      19.844111   22.178172   23.680483 H          1 MOL1         0.0752
      12    H6      18.470202   21.570626   24.583764 H          1 MOL1         0.0752
      13    C5      19.340584   20.122355   23.226507 C.3        1 MOL1        -0.1858
      14    H7      18.885643   19.261130   23.729960 H          1 MOL1         0.0752
      15    H8      18.638296   20.416696   22.435116 H          1 MOL1         0.0752
      16    C6      20.685179   19.715472   22.575600 C.3        1 MOL1        -0.1858
      17    H9      21.368114   19.320898   23.339496 H          1 MOL1         0.0752
      18    H10     21.166147   20.609661   22.156889 H          1 MOL1         0.0752
      19    C7      20.527085   18.665354   21.451598 C.3        1 MOL1        -0.1834
      20    H11     19.852412   19.049769   20.674360 H          1 MOL1         0.0752
      21    H12     21.503051   18.514910   20.970071 H          1 MOL1         0.0752
      22    C8      20.009839   17.303562   21.963977 C.3        1 MOL1        -0.2849
      23    H13     18.985240   17.383600   22.348278 H          1 MOL1         0.0764
      24    H14     20.006227   16.562398   21.154522 H          1 MOL1         0.0764
      25    H15     20.647240   16.921657   22.772760 H          1 MOL1         0.0764
@<TRIPOS>BOND
    1     1     2    1
    2     1     3    2
    3     1     4    1
    4     4     5    1
    5     4     6    1
    6     4     7    1
    7     7     8    1
    8     7     9    1
    9     7    10    1
   10    10    11    1
   11    10    12    1
   12    10    13    1
   13    13    14    1
   14    13    15    1
   15    13    16    1
   16    16    17    1
   17    16    18    1
   18    16    19    1
   19    19    20    1
   20    19    21    1
   21    19    22    1
   22    22    23    1
   23    22    24    1
   24    22    25    1
@<TRIPOS>SUBSTRUCTURE
       1 MOL1            1 RESIDUE      1      MOL     
@<SCITEGIC>MOL_PROPERTY
VM2 Rank
SciTegic.value.IntegerValue
182

@<SCITEGIC>MOL_PROPERTY
Conf_Id
SciTegic.value.IntegerValue
524

@<SCITEGIC>MOL_PROPERTY
Probability
SciTegic.value.DoubleValue
0.00

@<SCITEGIC>MOL_PROPERTY
Sum Probability
SciTegic.value.DoubleValue
100.00

@<SCITEGIC>MOL_PROPERTY
Delta G
SciTegic.value.DoubleValue
7.823

@<SCITEGIC>MOL_PROPERTY
G
SciTegic.value.DoubleValue
-0.139

@<SCITEGIC>MOL_PROPERTY
E
SciTegic.value.DoubleValue
-26.029

@<SCITEGIC>MOL_PROPERTY
-TS
SciTegic.value.DoubleValue
25.891

@<SCITEGIC>MOL_PROPERTY
U+W
SciTegic.value.DoubleValue
-46.597

@<SCITEGIC>MOL_PROPERTY
U
SciTegic.value.DoubleValue
14.294

@<SCITEGIC>MOL_PROPERTY
W
SciTegic.value.DoubleValue
-60.890

@<SCITEGIC>MOL_PROPERTY
W(PB)
SciTegic.value.DoubleValue
-63.187

@<SCITEGIC>MOL_PROPERTY
W(SA)
SciTegic.value.DoubleValue
2.297

@<SCITEGIC>MOL_PROPERTY
Valence
SciTegic.value.DoubleValue
10.557

@<SCITEGIC>MOL_PROPERTY
Coulomb
SciTegic.value.DoubleValue
3.765

@<SCITEGIC>MOL_PROPERTY
VdW
SciTegic.value.DoubleValue
-0.028

@<SCITEGIC>MOL_PROPERTY
VdW6
SciTegic.value.DoubleValue
-12.699

@<SCITEGIC>MOL_PROPERTY
VdW12
SciTegic.value.DoubleValue
12.671

@<SCITEGIC>MOL_PROPERTY
Bond
SciTegic.value.DoubleValue
0.274

@<SCITEGIC>MOL_PROPERTY
Angle
SciTegic.value.DoubleValue
3.852

@<SCITEGIC>MOL_PROPERTY
Pdih
SciTegic.value.DoubleValue
6.410

@<SCITEGIC>MOL_PROPERTY
Idih
SciTegic.value.DoubleValue
0.022

@<SCITEGIC>MOL_PROPERTY
Tether
SciTegic.value.DoubleValue
0.000

@<TRIPOS>MOLECULE
guest-8_vm2.mol2 : vm2 ligand conformer 183
          25          24           1
SMALL
USER_CHARGES
 
@<TRIPOS>ATOM
       1    C1      20.150268   18.507450   26.015798 C.2        1 MOL1         0.6168
       2    O1      21.150176   17.834314   25.858606 O.co2      1 MOL1        -0.6703
       3    O2      19.022151   18.056765   25.968037 O.co2      1 MOL1        -0.6703
       4    C2      20.324642   19.971211   26.417334 C.3        1 MOL1        -0.1963
       5    H1      21.393654   20.182561   26.540488 H          1 MOL1         0.0750
       6    H2      19.868827   20.073926   27.408890 H          1 MOL1         0.0750
       7    C3      19.676627   21.006097   25.454783 C.3        1 MOL1        -0.1860
       8    H3      18.677255   20.665592   25.152954 H          1 MOL1         0.0752
       9    H4      19.514302   21.934276   26.019028 H          1 MOL1         0.0752
      10    C4      20.534060   21.361097   24.211834 C.3        1 MOL1        -0.1858
      11    H5      21.505490   21.747711   24.548674 H          1 MOL1         0.0752
      12    H6      20.049806   22.190178   23.678120 H          1 MOL1         0.0752
      13    C5      20.778361   20.206245   23.209883 C.3        1 MOL1        -0.1858
      14    H7      21.423251   20.579179   22.402925 H          1 MOL1         0.0752
      15    H8      21.341813   19.404422   23.701561 H          1 MOL1         0.0752
      16    C6      19.475550   19.644938   22.589575 C.3        1 MOL1        -0.1858
      17    H9      18.884379   20.476587   22.183253 H          1 MOL1         0.0752
      18    H10     18.860894   19.174677   23.368471 H          1 MOL1         0.0752
      19    C7      19.728711   18.618802   21.460826 C.3        1 MOL1        -0.1834
      20    H11     18.766012   18.355255   21.001733 H          1 MOL1         0.0752
      21    H12     20.336011   19.078000   20.668753 H          1 MOL1         0.0752
      22    C8      20.412454   17.327080   21.959325 C.3        1 MOL1        -0.2849
      23    H13     19.842617   16.874775   22.782104 H          1 MOL1         0.0764
      24    H14     20.483517   16.590250   21.149024 H          1 MOL1         0.0764
      25    H15     21.429398   17.526218   22.319971 H          1 MOL1         0.0764
@<TRIPOS>BOND
    1     1     2    1
    2     1     3    2
    3     1     4    1
    4     4     5    1
    5     4     6    1
    6     4     7    1
    7     7     8    1
    8     7     9    1
    9     7    10    1
   10    10    11    1
   11    10    12    1
   12    10    13    1
   13    13    14    1
   14    13    15    1
   15    13    16    1
   16    16    17    1
   17    16    18    1
   18    16    19    1
   19    19    20    1
   20    19    21    1
   21    19    22    1
   22    22    23    1
   23    22    24    1
   24    22    25    1
@<TRIPOS>SUBSTRUCTURE
       1 MOL1            1 RESIDUE      1      MOL     
@<SCITEGIC>MOL_PROPERTY
VM2 Rank
SciTegic.value.IntegerValue
183

@<SCITEGIC>MOL_PROPERTY
Conf_Id
SciTegic.value.IntegerValue
522

@<SCITEGIC>MOL_PROPERTY
Probability
SciTegic.value.DoubleValue
0.00

@<SCITEGIC>MOL_PROPERTY
Sum Probability
SciTegic.value.DoubleValue
100.00

@<SCITEGIC>MOL_PROPERTY
Delta G
SciTegic.value.DoubleValue
7.905

@<SCITEGIC>MOL_PROPERTY
G
SciTegic.value.DoubleValue
-0.057

@<SCITEGIC>MOL_PROPERTY
E
SciTegic.value.DoubleValue
-25.947

@<SCITEGIC>MOL_PROPERTY
-TS
SciTegic.value.DoubleValue
25.890

@<SCITEGIC>MOL_PROPERTY
U+W
SciTegic.value.DoubleValue
-46.515

@<SCITEGIC>MOL_PROPERTY
U
SciTegic.value.DoubleValue
14.294

@<SCITEGIC>MOL_PROPERTY
W
SciTegic.value.DoubleValue
-60.809

@<SCITEGIC>MOL_PROPERTY
W(PB)
SciTegic.value.DoubleValue
-63.117

@<SCITEGIC>MOL_PROPERTY
W(SA)
SciTegic.value.DoubleValue
2.308

@<SCITEGIC>MOL_PROPERTY
Valence
SciTegic.value.DoubleValue
10.557

@<SCITEGIC>MOL_PROPERTY
Coulomb
SciTegic.value.DoubleValue
3.765

@<SCITEGIC>MOL_PROPERTY
VdW
SciTegic.value.DoubleValue
-0.028

@<SCITEGIC>MOL_PROPERTY
VdW6
SciTegic.value.DoubleValue
-12.699

@<SCITEGIC>MOL_PROPERTY
VdW12
SciTegic.value.DoubleValue
12.671

@<SCITEGIC>MOL_PROPERTY
Bond
SciTegic.value.DoubleValue
0.274

@<SCITEGIC>MOL_PROPERTY
Angle
SciTegic.value.DoubleValue
3.852

@<SCITEGIC>MOL_PROPERTY
Pdih
SciTegic.value.DoubleValue
6.410

@<SCITEGIC>MOL_PROPERTY
Idih
SciTegic.value.DoubleValue
0.022

@<SCITEGIC>MOL_PROPERTY
Tether
SciTegic.value.DoubleValue
0.000

@<TRIPOS>MOLECULE
guest-8_vm2.mol2 : vm2 ligand conformer 184
          25          24           1
SMALL
USER_CHARGES
 
@<TRIPOS>ATOM
       1    C1      20.600426   19.323399   26.615470 C.2        1 MOL1         0.6168
       2    O1      21.660738   19.874238   26.392582 O.co2      1 MOL1        -0.6703
       3    O2      20.507841   18.214135   27.103587 O.co2      1 MOL1        -0.6703
       4    C2      19.315681   20.087758   26.310875 C.3        1 MOL1        -0.1963
       5    H1      19.415930   21.074876   26.777077 H          1 MOL1         0.0750
       6    H2      18.481501   19.586886   26.816733 H          1 MOL1         0.0750
       7    C3      18.997585   20.268522   24.800311 C.3        1 MOL1        -0.1860
       8    H3      18.180591   20.997613   24.716042 H          1 MOL1         0.0752
       9    H4      19.860055   20.718282   24.292623 H          1 MOL1         0.0752
      10    C4      18.551322   18.965540   24.086206 C.3        1 MOL1        -0.1858
      11    H5      17.909687   19.221332   23.232026 H          1 MOL1         0.0752
      12    H6      17.912955   18.389777   24.770142 H          1 MOL1         0.0752
      13    C5      19.711756   18.061405   23.592611 C.3        1 MOL1        -0.1858
      14    H7      20.598684   18.179797   24.226763 H          1 MOL1         0.0752
      15    H8      19.401516   17.014216   23.709199 H          1 MOL1         0.0752
      16    C6      20.101621   18.272960   22.108042 C.3        1 MOL1        -0.1858
      17    H9      19.231286   18.071984   21.468617 H          1 MOL1         0.0752
      18    H10     20.860021   17.524655   21.840412 H          1 MOL1         0.0752
      19    C7      20.655734   19.680406   21.796584 C.3        1 MOL1        -0.1834
      20    H11     19.875168   20.434237   21.963642 H          1 MOL1         0.0752
      21    H12     21.482829   19.912692   22.481796 H          1 MOL1         0.0752
      22    C8      21.150297   19.785637   20.339731 C.3        1 MOL1        -0.2849
      23    H13     20.335040   19.582704   19.632992 H          1 MOL1         0.0764
      24    H14     21.534672   20.793037   20.133847 H          1 MOL1         0.0764
      25    H15     21.958763   19.068564   20.146155 H          1 MOL1         0.0764
@<TRIPOS>BOND
    1     1     2    1
    2     1     3    2
    3     1     4    1
    4     4     5    1
    5     4     6    1
    6     4     7    1
    7     7     8    1
    8     7     9    1
    9     7    10    1
   10    10    11    1
   11    10    12    1
   12    10    13    1
   13    13    14    1
   14    13    15    1
   15    13    16    1
   16    16    17    1
   17    16    18    1
   18    16    19    1
   19    19    20    1
   20    19    21    1
   21    19    22    1
   22    22    23    1
   23    22    24    1
   24    22    25    1
@<TRIPOS>SUBSTRUCTURE
       1 MOL1            1 RESIDUE      1      MOL     
@<SCITEGIC>MOL_PROPERTY
VM2 Rank
SciTegic.value.IntegerValue
184

@<SCITEGIC>MOL_PROPERTY
Conf_Id
SciTegic.value.IntegerValue
370

@<SCITEGIC>MOL_PROPERTY
Probability
SciTegic.value.DoubleValue
0.00

@<SCITEGIC>MOL_PROPERTY
Sum Probability
SciTegic.value.DoubleValue
100.00

@<SCITEGIC>MOL_PROPERTY
Delta G
SciTegic.value.DoubleValue
7.921

@<SCITEGIC>MOL_PROPERTY
G
SciTegic.value.DoubleValue
-0.042

@<SCITEGIC>MOL_PROPERTY
E
SciTegic.value.DoubleValue
-25.283

@<SCITEGIC>MOL_PROPERTY
-TS
SciTegic.value.DoubleValue
25.241

@<SCITEGIC>MOL_PROPERTY
U+W
SciTegic.value.DoubleValue
-45.851

@<SCITEGIC>MOL_PROPERTY
U
SciTegic.value.DoubleValue
14.998

@<SCITEGIC>MOL_PROPERTY
W
SciTegic.value.DoubleValue
-60.849

@<SCITEGIC>MOL_PROPERTY
W(PB)
SciTegic.value.DoubleValue
-63.215

@<SCITEGIC>MOL_PROPERTY
W(SA)
SciTegic.value.DoubleValue
2.366

@<SCITEGIC>MOL_PROPERTY
Valence
SciTegic.value.DoubleValue
12.645

@<SCITEGIC>MOL_PROPERTY
Coulomb
SciTegic.value.DoubleValue
1.771

@<SCITEGIC>MOL_PROPERTY
VdW
SciTegic.value.DoubleValue
0.582

@<SCITEGIC>MOL_PROPERTY
VdW6
SciTegic.value.DoubleValue
-11.471

@<SCITEGIC>MOL_PROPERTY
VdW12
SciTegic.value.DoubleValue
12.053

@<SCITEGIC>MOL_PROPERTY
Bond
SciTegic.value.DoubleValue
0.285

@<SCITEGIC>MOL_PROPERTY
Angle
SciTegic.value.DoubleValue
3.670

@<SCITEGIC>MOL_PROPERTY
Pdih
SciTegic.value.DoubleValue
8.687

@<SCITEGIC>MOL_PROPERTY
Idih
SciTegic.value.DoubleValue
0.004

@<SCITEGIC>MOL_PROPERTY
Tether
SciTegic.value.DoubleValue
0.000

@<TRIPOS>MOLECULE
guest-8_vm2.mol2 : vm2 ligand conformer 185
          25          24           1
SMALL
USER_CHARGES
 
@<TRIPOS>ATOM
       1    C1      20.308750   19.740690   26.606644 C.2        1 MOL1         0.6168
       2    O1      21.195026   20.540651   26.378739 O.co2      1 MOL1        -0.6703
       3    O2      19.225923   20.048408   27.065002 O.co2      1 MOL1        -0.6703
       4    C2      20.590546   18.263531   26.349392 C.3        1 MOL1        -0.1963
       5    H1      19.823437   17.666706   26.857294 H          1 MOL1         0.0750
       6    H2      21.542499   18.031989   26.841298 H          1 MOL1         0.0750
       7    C3      20.680736   17.860012   24.851162 C.3        1 MOL1        -0.1860
       8    H3      21.409696   18.500824   24.339435 H          1 MOL1         0.0752
       9    H4      21.085802   16.840290   24.803799 H          1 MOL1         0.0752
      10    C4      19.318170   17.868295   24.109404 C.3        1 MOL1        -0.1858
      11    H5      18.544504   17.486220   24.789289 H          1 MOL1         0.0752
      12    H6      19.354452   17.153834   23.275751 H          1 MOL1         0.0752
      13    C5      18.878429   19.254134   23.567385 C.3        1 MOL1        -0.1858
      14    H7      17.786343   19.325870   23.660390 H          1 MOL1         0.0752
      15    H8      19.282173   20.064102   24.186862 H          1 MOL1         0.0752
      16    C6      19.240522   19.505236   22.081946 C.3        1 MOL1        -0.1858
      17    H9      18.804274   20.466567   21.778151 H          1 MOL1         0.0752
      18    H10     18.765078   18.739048   21.454530 H          1 MOL1         0.0752
      19    C7      20.758558   19.533164   21.799575 C.3        1 MOL1        -0.1834
      20    H11     21.247605   20.249302   22.474512 H          1 MOL1         0.0752
      21    H12     21.194357   18.546264   22.003444 H          1 MOL1         0.0752
      22    C8      21.056340   19.919879   20.336750 C.3        1 MOL1        -0.2849
      23    H13     20.599331   19.204182   19.640885 H          1 MOL1         0.0764
      24    H14     20.665190   20.919600   20.106883 H          1 MOL1         0.0764
      25    H15     22.138349   19.928852   20.151918 H          1 MOL1         0.0764
@<TRIPOS>BOND
    1     1     2    1
    2     1     3    2
    3     1     4    1
    4     4     5    1
    5     4     6    1
    6     4     7    1
    7     7     8    1
    8     7     9    1
    9     7    10    1
   10    10    11    1
   11    10    12    1
   12    10    13    1
   13    13    14    1
   14    13    15    1
   15    13    16    1
   16    16    17    1
   17    16    18    1
   18    16    19    1
   19    19    20    1
   20    19    21    1
   21    19    22    1
   22    22    23    1
   23    22    24    1
   24    22    25    1
@<TRIPOS>SUBSTRUCTURE
       1 MOL1            1 RESIDUE      1      MOL     
@<SCITEGIC>MOL_PROPERTY
VM2 Rank
SciTegic.value.IntegerValue
185

@<SCITEGIC>MOL_PROPERTY
Conf_Id
SciTegic.value.IntegerValue
389

@<SCITEGIC>MOL_PROPERTY
Probability
SciTegic.value.DoubleValue
0.00

@<SCITEGIC>MOL_PROPERTY
Sum Probability
SciTegic.value.DoubleValue
100.00

@<SCITEGIC>MOL_PROPERTY
Delta G
SciTegic.value.DoubleValue
7.973

@<SCITEGIC>MOL_PROPERTY
G
SciTegic.value.DoubleValue
0.011

@<SCITEGIC>MOL_PROPERTY
E
SciTegic.value.DoubleValue
-25.230

@<SCITEGIC>MOL_PROPERTY
-TS
SciTegic.value.DoubleValue
25.241

@<SCITEGIC>MOL_PROPERTY
U+W
SciTegic.value.DoubleValue
-45.798

@<SCITEGIC>MOL_PROPERTY
U
SciTegic.value.DoubleValue
14.997

@<SCITEGIC>MOL_PROPERTY
W
SciTegic.value.DoubleValue
-60.795

@<SCITEGIC>MOL_PROPERTY
W(PB)
SciTegic.value.DoubleValue
-63.174

@<SCITEGIC>MOL_PROPERTY
W(SA)
SciTegic.value.DoubleValue
2.379

@<SCITEGIC>MOL_PROPERTY
Valence
SciTegic.value.DoubleValue
12.645

@<SCITEGIC>MOL_PROPERTY
Coulomb
SciTegic.value.DoubleValue
1.770

@<SCITEGIC>MOL_PROPERTY
VdW
SciTegic.value.DoubleValue
0.582

@<SCITEGIC>MOL_PROPERTY
VdW6
SciTegic.value.DoubleValue
-11.471

@<SCITEGIC>MOL_PROPERTY
VdW12
SciTegic.value.DoubleValue
12.053

@<SCITEGIC>MOL_PROPERTY
Bond
SciTegic.value.DoubleValue
0.285

@<SCITEGIC>MOL_PROPERTY
Angle
SciTegic.value.DoubleValue
3.670

@<SCITEGIC>MOL_PROPERTY
Pdih
SciTegic.value.DoubleValue
8.687

@<SCITEGIC>MOL_PROPERTY
Idih
SciTegic.value.DoubleValue
0.003

@<SCITEGIC>MOL_PROPERTY
Tether
SciTegic.value.DoubleValue
0.000

@<TRIPOS>MOLECULE
guest-8_vm2.mol2 : vm2 ligand conformer 186
          25          24           1
SMALL
USER_CHARGES
 
@<TRIPOS>ATOM
       1    C1      20.000263   19.738203   26.988402 C.2        1 MOL1         0.6168
       2    O1      20.887228   19.815133   27.815605 O.co2      1 MOL1        -0.6703
       3    O2      19.038296   20.480251   26.962110 O.co2      1 MOL1        -0.6703
       4    C2      20.110003   18.662399   25.913789 C.3        1 MOL1        -0.1963
       5    H1      19.093783   18.355581   25.643518 H          1 MOL1         0.0750
       6    H2      20.604315   17.789900   26.357174 H          1 MOL1         0.0750
       7    C3      20.892642   19.142672   24.663489 C.3        1 MOL1        -0.1860
       8    H3      20.388110   20.015754   24.232571 H          1 MOL1         0.0752
       9    H4      21.884638   19.487944   24.985590 H          1 MOL1         0.0752
      10    C4      21.077252   18.036629   23.593700 C.3        1 MOL1        -0.1858
      11    H5      21.473783   17.141109   24.091247 H          1 MOL1         0.0752
      12    H6      21.850820   18.338830   22.875475 H          1 MOL1         0.0752
      13    C5      19.784513   17.652123   22.827654 C.3        1 MOL1        -0.1858
      14    H7      19.827542   16.573658   22.623433 H          1 MOL1         0.0752
      15    H8      18.898151   17.795116   23.457784 H          1 MOL1         0.0752
      16    C6      19.579226   18.367774   21.466124 C.3        1 MOL1        -0.1858
      17    H9      18.712783   17.898308   20.980619 H          1 MOL1         0.0752
      18    H10     20.431919   18.169045   20.802669 H          1 MOL1         0.0752
      19    C7      19.305952   19.889809   21.546434 C.3        1 MOL1        -0.1834
      20    H11     18.602808   20.160694   20.746817 H          1 MOL1         0.0752
      21    H12     18.800459   20.137513   22.489527 H          1 MOL1         0.0752
      22    C8      20.577623   20.749006   21.368694 C.3        1 MOL1        -0.2849
      23    H13     21.040884   20.562379   20.391222 H          1 MOL1         0.0764
      24    H14     20.330402   21.816882   21.424975 H          1 MOL1         0.0764
      25    H15     21.324428   20.537276   22.141752 H          1 MOL1         0.0764
@<TRIPOS>BOND
    1     1     2    1
    2     1     3    2
    3     1     4    1
    4     4     5    1
    5     4     6    1
    6     4     7    1
    7     7     8    1
    8     7     9    1
    9     7    10    1
   10    10    11    1
   11    10    12    1
   12    10    13    1
   13    13    14    1
   14    13    15    1
   15    13    16    1
   16    16    17    1
   17    16    18    1
   18    16    19    1
   19    19    20    1
   20    19    21    1
   21    19    22    1
   22    22    23    1
   23    22    24    1
   24    22    25    1
@<TRIPOS>SUBSTRUCTURE
       1 MOL1            1 RESIDUE      1      MOL     
@<SCITEGIC>MOL_PROPERTY
VM2 Rank
SciTegic.value.IntegerValue
186

@<SCITEGIC>MOL_PROPERTY
Conf_Id
SciTegic.value.IntegerValue
1091

@<SCITEGIC>MOL_PROPERTY
Probability
SciTegic.value.DoubleValue
0.00

@<SCITEGIC>MOL_PROPERTY
Sum Probability
SciTegic.value.DoubleValue
100.00

@<SCITEGIC>MOL_PROPERTY
Delta G
SciTegic.value.DoubleValue
8.220

@<SCITEGIC>MOL_PROPERTY
G
SciTegic.value.DoubleValue
0.257

@<SCITEGIC>MOL_PROPERTY
E
SciTegic.value.DoubleValue
-25.042

@<SCITEGIC>MOL_PROPERTY
-TS
SciTegic.value.DoubleValue
25.299

@<SCITEGIC>MOL_PROPERTY
U+W
SciTegic.value.DoubleValue
-45.610

@<SCITEGIC>MOL_PROPERTY
U
SciTegic.value.DoubleValue
14.522

@<SCITEGIC>MOL_PROPERTY
W
SciTegic.value.DoubleValue
-60.131

@<SCITEGIC>MOL_PROPERTY
W(PB)
SciTegic.value.DoubleValue
-62.514

@<SCITEGIC>MOL_PROPERTY
W(SA)
SciTegic.value.DoubleValue
2.382

@<SCITEGIC>MOL_PROPERTY
Valence
SciTegic.value.DoubleValue
13.852

@<SCITEGIC>MOL_PROPERTY
Coulomb
SciTegic.value.DoubleValue
-0.211

@<SCITEGIC>MOL_PROPERTY
VdW
SciTegic.value.DoubleValue
0.880

@<SCITEGIC>MOL_PROPERTY
VdW6
SciTegic.value.DoubleValue
-11.048

@<SCITEGIC>MOL_PROPERTY
VdW12
SciTegic.value.DoubleValue
11.928

@<SCITEGIC>MOL_PROPERTY
Bond
SciTegic.value.DoubleValue
0.293

@<SCITEGIC>MOL_PROPERTY
Angle
SciTegic.value.DoubleValue
3.945

@<SCITEGIC>MOL_PROPERTY
Pdih
SciTegic.value.DoubleValue
9.614

@<SCITEGIC>MOL_PROPERTY
Idih
SciTegic.value.DoubleValue
0.000

@<SCITEGIC>MOL_PROPERTY
Tether
SciTegic.value.DoubleValue
0.000

@<TRIPOS>MOLECULE
guest-8_vm2.mol2 : vm2 ligand conformer 187
          25          24           1
SMALL
USER_CHARGES
 
@<TRIPOS>ATOM
       1    C1      20.240382   19.013303   27.028989 C.2        1 MOL1         0.6168
       2    O1      21.421129   19.161242   27.276069 O.co2      1 MOL1        -0.6703
       3    O2      19.347211   19.451124   27.727396 O.co2      1 MOL1        -0.6703
       4    C2      19.855746   18.217156   25.785192 C.3        1 MOL1        -0.1963
       5    H1      19.067677   17.513073   26.076833 H          1 MOL1         0.0750
       6    H2      20.718655   17.616464   25.473234 H          1 MOL1         0.0750
       7    C3      19.358584   19.091071   24.604597 C.3        1 MOL1        -0.1860
       8    H3      18.973553   18.433305   23.817001 H          1 MOL1         0.0752
       9    H4      18.510062   19.703776   24.938987 H          1 MOL1         0.0752
      10    C4      20.468950   20.007723   24.035824 C.3        1 MOL1        -0.1858
      11    H5      21.367117   19.425369   23.791356 H          1 MOL1         0.0752
      12    H6      20.771489   20.709649   24.825053 H          1 MOL1         0.0752
      13    C5      20.012984   20.826829   22.802996 C.3        1 MOL1        -0.1858
      14    H7      18.932013   21.016540   22.850462 H          1 MOL1         0.0752
      15    H8      20.488167   21.815373   22.864634 H          1 MOL1         0.0752
      16    C6      20.387869   20.223328   21.423164 C.3        1 MOL1        -0.1858
      17    H9      21.476765   20.097721   21.350376 H          1 MOL1         0.0752
      18    H10     20.126102   20.970159   20.661218 H          1 MOL1         0.0752
      19    C7      19.671375   18.901747   21.051671 C.3        1 MOL1        -0.1834
      20    H11     18.676730   18.863361   21.515481 H          1 MOL1         0.0752
      21    H12     19.498695   18.892440   19.966636 H          1 MOL1         0.0752
      22    C8      20.488769   17.640476   21.410101 C.3        1 MOL1        -0.2849
      23    H13     20.690768   17.575985   22.484889 H          1 MOL1         0.0764
      24    H14     21.452522   17.638136   20.884703 H          1 MOL1         0.0764
      25    H15     19.944129   16.733878   21.116740 H          1 MOL1         0.0764
@<TRIPOS>BOND
    1     1     2    1
    2     1     3    2
    3     1     4    1
    4     4     5    1
    5     4     6    1
    6     4     7    1
    7     7     8    1
    8     7     9    1
    9     7    10    1
   10    10    11    1
   11    10    12    1
   12    10    13    1
   13    13    14    1
   14    13    15    1
   15    13    16    1
   16    16    17    1
   17    16    18    1
   18    16    19    1
   19    19    20    1
   20    19    21    1
   21    19    22    1
   22    22    23    1
   23    22    24    1
   24    22    25    1
@<TRIPOS>SUBSTRUCTURE
       1 MOL1            1 RESIDUE      1      MOL     
@<SCITEGIC>MOL_PROPERTY
VM2 Rank
SciTegic.value.IntegerValue
187

@<SCITEGIC>MOL_PROPERTY
Conf_Id
SciTegic.value.IntegerValue
859

@<SCITEGIC>MOL_PROPERTY
Probability
SciTegic.value.DoubleValue
0.00

@<SCITEGIC>MOL_PROPERTY
Sum Probability
SciTegic.value.DoubleValue
100.00

@<SCITEGIC>MOL_PROPERTY
Delta G
SciTegic.value.DoubleValue
8.622

@<SCITEGIC>MOL_PROPERTY
G
SciTegic.value.DoubleValue
0.660

@<SCITEGIC>MOL_PROPERTY
E
SciTegic.value.DoubleValue
-24.902

@<SCITEGIC>MOL_PROPERTY
-TS
SciTegic.value.DoubleValue
25.561

@<SCITEGIC>MOL_PROPERTY
U+W
SciTegic.value.DoubleValue
-45.469

@<SCITEGIC>MOL_PROPERTY
U
SciTegic.value.DoubleValue
14.630

@<SCITEGIC>MOL_PROPERTY
W
SciTegic.value.DoubleValue
-60.099

@<SCITEGIC>MOL_PROPERTY
W(PB)
SciTegic.value.DoubleValue
-62.445

@<SCITEGIC>MOL_PROPERTY
W(SA)
SciTegic.value.DoubleValue
2.346

@<SCITEGIC>MOL_PROPERTY
Valence
SciTegic.value.DoubleValue
13.402

@<SCITEGIC>MOL_PROPERTY
Coulomb
SciTegic.value.DoubleValue
0.625

@<SCITEGIC>MOL_PROPERTY
VdW
SciTegic.value.DoubleValue
0.603

@<SCITEGIC>MOL_PROPERTY
VdW6
SciTegic.value.DoubleValue
-11.386

@<SCITEGIC>MOL_PROPERTY
VdW12
SciTegic.value.DoubleValue
11.989

@<SCITEGIC>MOL_PROPERTY
Bond
SciTegic.value.DoubleValue
0.263

@<SCITEGIC>MOL_PROPERTY
Angle
SciTegic.value.DoubleValue
3.872

@<SCITEGIC>MOL_PROPERTY
Pdih
SciTegic.value.DoubleValue
9.266

@<SCITEGIC>MOL_PROPERTY
Idih
SciTegic.value.DoubleValue
0.001

@<SCITEGIC>MOL_PROPERTY
Tether
SciTegic.value.DoubleValue
0.000

@<TRIPOS>MOLECULE
guest-8_vm2.mol2 : vm2 ligand conformer 188
          25          24           1
SMALL
USER_CHARGES
 
@<TRIPOS>ATOM
       1    C1      20.549691   19.904169   26.025709 C.2        1 MOL1         0.6168
       2    O1      21.557645   20.417493   25.581459 O.co2      1 MOL1        -0.6703
       3    O2      19.601438   20.543588   26.438684 O.co2      1 MOL1        -0.6703
       4    C2      20.535202   18.383004   26.185557 C.3        1 MOL1        -0.1963
       5    H1      20.746281   18.188434   27.243236 H          1 MOL1         0.0750
       6    H2      21.370327   17.956671   25.617082 H          1 MOL1         0.0750
       7    C3      19.205357   17.674111   25.800238 C.3        1 MOL1        -0.1860
       8    H3      19.165535   16.716944   26.337461 H          1 MOL1         0.0752
       9    H4      18.349364   18.256844   26.167719 H          1 MOL1         0.0752
      10    C4      19.026961   17.369049   24.290680 C.3        1 MOL1        -0.1858
      11    H5      18.097575   16.794091   24.178391 H          1 MOL1         0.0752
      12    H6      19.829688   16.703686   23.944414 H          1 MOL1         0.0752
      13    C5      18.930535   18.617173   23.378851 C.3        1 MOL1        -0.1858
      14    H7      18.147248   18.444603   22.628226 H          1 MOL1         0.0752
      15    H8      18.605533   19.489540   23.962254 H          1 MOL1         0.0752
      16    C6      20.251424   18.924357   22.636655 C.3        1 MOL1        -0.1858
      17    H9      20.514958   18.073906   21.993335 H          1 MOL1         0.0752
      18    H10     21.070570   19.039982   23.356884 H          1 MOL1         0.0752
      19    C7      20.140562   20.202626   21.779719 C.3        1 MOL1        -0.1834
      20    H11     19.320761   20.095358   21.056104 H          1 MOL1         0.0752
      21    H12     19.889672   21.056191   22.425043 H          1 MOL1         0.0752
      22    C8      21.454185   20.498430   21.028448 C.3        1 MOL1        -0.2849
      23    H13     21.358731   21.411320   20.426417 H          1 MOL1         0.0764
      24    H14     22.283573   20.642241   21.733572 H          1 MOL1         0.0764
      25    H15     21.716038   19.672586   20.354179 H          1 MOL1         0.0764
@<TRIPOS>BOND
    1     1     2    1
    2     1     3    2
    3     1     4    1
    4     4     5    1
    5     4     6    1
    6     4     7    1
    7     7     8    1
    8     7     9    1
    9     7    10    1
   10    10    11    1
   11    10    12    1
   12    10    13    1
   13    13    14    1
   14    13    15    1
   15    13    16    1
   16    16    17    1
   17    16    18    1
   18    16    19    1
   19    19    20    1
   20    19    21    1
   21    19    22    1
   22    22    23    1
   23    22    24    1
   24    22    25    1
@<TRIPOS>SUBSTRUCTURE
       1 MOL1            1 RESIDUE      1      MOL     
@<SCITEGIC>MOL_PROPERTY
VM2 Rank
SciTegic.value.IntegerValue
188

@<SCITEGIC>MOL_PROPERTY
Conf_Id
SciTegic.value.IntegerValue
297

@<SCITEGIC>MOL_PROPERTY
Probability
SciTegic.value.DoubleValue
0.00

@<SCITEGIC>MOL_PROPERTY
Sum Probability
SciTegic.value.DoubleValue
100.00

@<SCITEGIC>MOL_PROPERTY
Delta G
SciTegic.value.DoubleValue
8.700

@<SCITEGIC>MOL_PROPERTY
G
SciTegic.value.DoubleValue
0.738

@<SCITEGIC>MOL_PROPERTY
E
SciTegic.value.DoubleValue
-24.792

@<SCITEGIC>MOL_PROPERTY
-TS
SciTegic.value.DoubleValue
25.530

@<SCITEGIC>MOL_PROPERTY
U+W
SciTegic.value.DoubleValue
-45.360

@<SCITEGIC>MOL_PROPERTY
U
SciTegic.value.DoubleValue
15.897

@<SCITEGIC>MOL_PROPERTY
W
SciTegic.value.DoubleValue
-61.257

@<SCITEGIC>MOL_PROPERTY
W(PB)
SciTegic.value.DoubleValue
-63.624

@<SCITEGIC>MOL_PROPERTY
W(SA)
SciTegic.value.DoubleValue
2.368

@<SCITEGIC>MOL_PROPERTY
Valence
SciTegic.value.DoubleValue
12.566

@<SCITEGIC>MOL_PROPERTY
Coulomb
SciTegic.value.DoubleValue
3.123

@<SCITEGIC>MOL_PROPERTY
VdW
SciTegic.value.DoubleValue
0.208

@<SCITEGIC>MOL_PROPERTY
VdW6
SciTegic.value.DoubleValue
-11.860

@<SCITEGIC>MOL_PROPERTY
VdW12
SciTegic.value.DoubleValue
12.068

@<SCITEGIC>MOL_PROPERTY
Bond
SciTegic.value.DoubleValue
0.250

@<SCITEGIC>MOL_PROPERTY
Angle
SciTegic.value.DoubleValue
3.828

@<SCITEGIC>MOL_PROPERTY
Pdih
SciTegic.value.DoubleValue
8.467

@<SCITEGIC>MOL_PROPERTY
Idih
SciTegic.value.DoubleValue
0.021

@<SCITEGIC>MOL_PROPERTY
Tether
SciTegic.value.DoubleValue
0.000

@<TRIPOS>MOLECULE
guest-8_vm2.mol2 : vm2 ligand conformer 189
          25          24           1
SMALL
USER_CHARGES
 
@<TRIPOS>ATOM
       1    C1      19.406896   18.984153   26.030192 C.2        1 MOL1         0.6168
       2    O1      18.688077   18.107498   25.592463 O.co2      1 MOL1        -0.6703
       3    O2      18.986719   20.048718   26.440973 O.co2      1 MOL1        -0.6703
       4    C2      20.896813   18.674032   26.184103 C.3        1 MOL1        -0.1963
       5    H1      21.132279   17.765061   25.617812 H          1 MOL1         0.0750
       6    H2      21.046829   18.430114   27.241975 H          1 MOL1         0.0750
       7    C3      21.871511   19.820390   25.789993 C.3        1 MOL1        -0.1860
       8    H3      21.486723   20.782431   26.155725 H          1 MOL1         0.0752
       9    H4      22.817602   19.656878   26.323414 H          1 MOL1         0.0752
      10    C4      22.200587   19.923954   24.278491 C.3        1 MOL1        -0.1858
      11    H5      22.677632   18.996410   23.933431 H          1 MOL1         0.0752
      12    H6      22.960160   20.708744   24.159758 H          1 MOL1         0.0752
      13    C5      20.997589   20.281238   23.370919 C.3        1 MOL1        -0.1858
      14    H7      20.217489   20.787266   23.956058 H          1 MOL1         0.0752
      15    H8      21.329937   21.006736   22.615966 H          1 MOL1         0.0752
      16    C6      20.411957   19.053619   22.636103 C.3        1 MOL1        -0.1858
      17    H9      20.127441   18.280794   23.360595 H          1 MOL1         0.0752
      18    H10     21.183500   18.612108   21.990841 H          1 MOL1         0.0752
      19    C7      19.182857   19.431665   21.783462 C.3        1 MOL1        -0.1834
      20    H11     18.405520   19.861349   22.430828 H          1 MOL1         0.0752
      21    H12     19.459294   20.207013   21.055716 H          1 MOL1         0.0752
      22    C8      18.609994   18.208733   21.039301 C.3        1 MOL1        -0.2849
      23    H13     19.357768   17.774191   20.363112 H          1 MOL1         0.0764
      24    H14     18.295770   17.431721   21.748723 H          1 MOL1         0.0764
      25    H15     17.735717   18.494655   20.440295 H          1 MOL1         0.0764
@<TRIPOS>BOND
    1     1     2    1
    2     1     3    2
    3     1     4    1
    4     4     5    1
    5     4     6    1
    6     4     7    1
    7     7     8    1
    8     7     9    1
    9     7    10    1
   10    10    11    1
   11    10    12    1
   12    10    13    1
   13    13    14    1
   14    13    15    1
   15    13    16    1
   16    16    17    1
   17    16    18    1
   18    16    19    1
   19    19    20    1
   20    19    21    1
   21    19    22    1
   22    22    23    1
   23    22    24    1
   24    22    25    1
@<TRIPOS>SUBSTRUCTURE
       1 MOL1            1 RESIDUE      1      MOL     
@<SCITEGIC>MOL_PROPERTY
VM2 Rank
SciTegic.value.IntegerValue
189

@<SCITEGIC>MOL_PROPERTY
Conf_Id
SciTegic.value.IntegerValue
80

@<SCITEGIC>MOL_PROPERTY
Probability
SciTegic.value.DoubleValue
0.00

@<SCITEGIC>MOL_PROPERTY
Sum Probability
SciTegic.value.DoubleValue
100.00

@<SCITEGIC>MOL_PROPERTY
Delta G
SciTegic.value.DoubleValue
8.758

@<SCITEGIC>MOL_PROPERTY
G
SciTegic.value.DoubleValue
0.796

@<SCITEGIC>MOL_PROPERTY
E
SciTegic.value.DoubleValue
-24.735

@<SCITEGIC>MOL_PROPERTY
-TS
SciTegic.value.DoubleValue
25.531

@<SCITEGIC>MOL_PROPERTY
U+W
SciTegic.value.DoubleValue
-45.302

@<SCITEGIC>MOL_PROPERTY
U
SciTegic.value.DoubleValue
15.898

@<SCITEGIC>MOL_PROPERTY
W
SciTegic.value.DoubleValue
-61.201

@<SCITEGIC>MOL_PROPERTY
W(PB)
SciTegic.value.DoubleValue
-63.554

@<SCITEGIC>MOL_PROPERTY
W(SA)
SciTegic.value.DoubleValue
2.353

@<SCITEGIC>MOL_PROPERTY
Valence
SciTegic.value.DoubleValue
12.566

@<SCITEGIC>MOL_PROPERTY
Coulomb
SciTegic.value.DoubleValue
3.124

@<SCITEGIC>MOL_PROPERTY
VdW
SciTegic.value.DoubleValue
0.208

@<SCITEGIC>MOL_PROPERTY
VdW6
SciTegic.value.DoubleValue
-11.861

@<SCITEGIC>MOL_PROPERTY
VdW12
SciTegic.value.DoubleValue
12.069

@<SCITEGIC>MOL_PROPERTY
Bond
SciTegic.value.DoubleValue
0.250

@<SCITEGIC>MOL_PROPERTY
Angle
SciTegic.value.DoubleValue
3.828

@<SCITEGIC>MOL_PROPERTY
Pdih
SciTegic.value.DoubleValue
8.466

@<SCITEGIC>MOL_PROPERTY
Idih
SciTegic.value.DoubleValue
0.022

@<SCITEGIC>MOL_PROPERTY
Tether
SciTegic.value.DoubleValue
0.000

@<TRIPOS>MOLECULE
guest-8_vm2.mol2 : vm2 ligand conformer 190
          25          24           1
SMALL
USER_CHARGES
 
@<TRIPOS>ATOM
       1    C1      20.650202   18.994711   26.541030 C.2        1 MOL1         0.6168
       2    O1      21.855747   19.113104   26.443417 O.co2      1 MOL1        -0.6703
       3    O2      20.100745   17.970447   26.896285 O.co2      1 MOL1        -0.6703
       4    C2      19.782252   20.212914   26.237591 C.3        1 MOL1        -0.1963
       5    H1      20.269966   21.084072   26.690587 H          1 MOL1         0.0750
       6    H2      18.817421   20.090033   26.744180 H          1 MOL1         0.0750
       7    C3      19.565072   20.470863   24.723970 C.3        1 MOL1        -0.1860
       8    H3      19.063853   21.439938   24.598526 H          1 MOL1         0.0752
       9    H4      20.540493   20.559830   24.230932 H          1 MOL1         0.0752
      10    C4      18.710938   19.368990   24.050627 C.3        1 MOL1        -0.1858
      11    H5      17.739368   19.333302   24.562008 H          1 MOL1         0.0752
      12    H6      19.163710   18.378987   24.195494 H          1 MOL1         0.0752
      13    C5      18.460572   19.622529   22.543136 C.3        1 MOL1        -0.1858
      14    H7      17.445365   19.273492   22.310059 H          1 MOL1         0.0752
      15    H8      18.456280   20.700792   22.333455 H          1 MOL1         0.0752
      16    C6      19.428669   18.895819   21.572216 C.3        1 MOL1        -0.1858
      17    H9      19.051073   19.060609   20.553842 H          1 MOL1         0.0752
      18    H10     19.378198   17.810280   21.733036 H          1 MOL1         0.0752
      19    C7      20.900647   19.374361   21.612006 C.3        1 MOL1        -0.1834
      20    H11     21.311348   19.325619   20.594118 H          1 MOL1         0.0752
      21    H12     20.951062   20.430781   21.907497 H          1 MOL1         0.0752
      22    C8      21.798155   18.510262   22.525722 C.3        1 MOL1        -0.2849
      23    H13     21.816628   17.467943   22.182345 H          1 MOL1         0.0764
      24    H14     22.829538   18.885333   22.517639 H          1 MOL1         0.0764
      25    H15     21.450071   18.516003   23.565061 H          1 MOL1         0.0764
@<TRIPOS>BOND
    1     1     2    1
    2     1     3    2
    3     1     4    1
    4     4     5    1
    5     4     6    1
    6     4     7    1
    7     7     8    1
    8     7     9    1
    9     7    10    1
   10    10    11    1
   11    10    12    1
   12    10    13    1
   13    13    14    1
   14    13    15    1
   15    13    16    1
   16    16    17    1
   17    16    18    1
   18    16    19    1
   19    19    20    1
   20    19    21    1
   21    19    22    1
   22    22    23    1
   23    22    24    1
   24    22    25    1
@<TRIPOS>SUBSTRUCTURE
       1 MOL1            1 RESIDUE      1      MOL     
@<SCITEGIC>MOL_PROPERTY
VM2 Rank
SciTegic.value.IntegerValue
190

@<SCITEGIC>MOL_PROPERTY
Conf_Id
SciTegic.value.IntegerValue
280

@<SCITEGIC>MOL_PROPERTY
Probability
SciTegic.value.DoubleValue
0.00

@<SCITEGIC>MOL_PROPERTY
Sum Probability
SciTegic.value.DoubleValue
100.00

@<SCITEGIC>MOL_PROPERTY
Delta G
SciTegic.value.DoubleValue
9.325

@<SCITEGIC>MOL_PROPERTY
G
SciTegic.value.DoubleValue
1.362

@<SCITEGIC>MOL_PROPERTY
E
SciTegic.value.DoubleValue
-24.493

@<SCITEGIC>MOL_PROPERTY
-TS
SciTegic.value.DoubleValue
25.855

@<SCITEGIC>MOL_PROPERTY
U+W
SciTegic.value.DoubleValue
-45.061

@<SCITEGIC>MOL_PROPERTY
U
SciTegic.value.DoubleValue
16.131

@<SCITEGIC>MOL_PROPERTY
W
SciTegic.value.DoubleValue
-61.191

@<SCITEGIC>MOL_PROPERTY
W(PB)
SciTegic.value.DoubleValue
-63.538

@<SCITEGIC>MOL_PROPERTY
W(SA)
SciTegic.value.DoubleValue
2.347

@<SCITEGIC>MOL_PROPERTY
Valence
SciTegic.value.DoubleValue
13.422

@<SCITEGIC>MOL_PROPERTY
Coulomb
SciTegic.value.DoubleValue
2.541

@<SCITEGIC>MOL_PROPERTY
VdW
SciTegic.value.DoubleValue
0.168

@<SCITEGIC>MOL_PROPERTY
VdW6
SciTegic.value.DoubleValue
-12.055

@<SCITEGIC>MOL_PROPERTY
VdW12
SciTegic.value.DoubleValue
12.224

@<SCITEGIC>MOL_PROPERTY
Bond
SciTegic.value.DoubleValue
0.261

@<SCITEGIC>MOL_PROPERTY
Angle
SciTegic.value.DoubleValue
3.880

@<SCITEGIC>MOL_PROPERTY
Pdih
SciTegic.value.DoubleValue
9.278

@<SCITEGIC>MOL_PROPERTY
Idih
SciTegic.value.DoubleValue
0.002

@<SCITEGIC>MOL_PROPERTY
Tether
SciTegic.value.DoubleValue
0.000

@<TRIPOS>MOLECULE
guest-8_vm2.mol2 : vm2 ligand conformer 191
          25          24           1
SMALL
USER_CHARGES
 
@<TRIPOS>ATOM
       1    C1      20.195562   19.971447   26.132682 C.2        1 MOL1         0.6168
       2    O1      19.029213   20.168677   26.414204 O.co2      1 MOL1        -0.6703
       3    O2      20.970449   20.860240   25.838390 O.co2      1 MOL1        -0.6703
       4    C2      20.753801   18.554591   26.275275 C.3        1 MOL1        -0.1963
       5    H1      20.857758   18.377452   27.351811 H          1 MOL1         0.0750
       6    H2      21.766171   18.525315   25.855143 H          1 MOL1         0.0750
       7    C3      19.883654   17.420730   25.661619 C.3        1 MOL1        -0.1860
       8    H3      20.145454   16.482443   26.168986 H          1 MOL1         0.0752
       9    H4      18.823535   17.596963   25.890676 H          1 MOL1         0.0752
      10    C4      20.063106   17.193336   24.138383 C.3        1 MOL1        -0.1858
      11    H5      19.464437   16.314077   23.863739 H          1 MOL1         0.0752
      12    H6      21.104736   16.922100   23.918314 H          1 MOL1         0.0752
      13    C5      19.614242   18.376064   23.244890 C.3        1 MOL1        -0.1858
      14    H7      19.079688   17.970237   22.376152 H          1 MOL1         0.0752
      15    H8      18.891072   19.004451   23.782380 H          1 MOL1         0.0752
      16    C6      20.801631   19.230026   22.737736 C.3        1 MOL1        -0.1858
      17    H9      21.432082   18.625008   22.072259 H          1 MOL1         0.0752
      18    H10     21.437134   19.515844   23.584732 H          1 MOL1         0.0752
      19    C7      20.360325   20.517088   22.003617 C.3        1 MOL1        -0.1834
      20    H11     19.749580   21.133220   22.678441 H          1 MOL1         0.0752
      21    H12     21.253385   21.111189   21.766044 H          1 MOL1         0.0752
      22    C8      19.581018   20.241802   20.699203 C.3        1 MOL1        -0.2849
      23    H13     18.622977   19.747301   20.902844 H          1 MOL1         0.0764
      24    H14     19.365231   21.181877   20.175277 H          1 MOL1         0.0764
      25    H15     20.162200   19.602580   20.021970 H          1 MOL1         0.0764
@<TRIPOS>BOND
    1     1     2    1
    2     1     3    2
    3     1     4    1
    4     4     5    1
    5     4     6    1
    6     4     7    1
    7     7     8    1
    8     7     9    1
    9     7    10    1
   10    10    11    1
   11    10    12    1
   12    10    13    1
   13    13    14    1
   14    13    15    1
   15    13    16    1
   16    16    17    1
   17    16    18    1
   18    16    19    1
   19    19    20    1
   20    19    21    1
   21    19    22    1
   22    22    23    1
   23    22    24    1
   24    22    25    1
@<TRIPOS>SUBSTRUCTURE
       1 MOL1            1 RESIDUE      1      MOL     
@<SCITEGIC>MOL_PROPERTY
VM2 Rank
SciTegic.value.IntegerValue
191

@<SCITEGIC>MOL_PROPERTY
Conf_Id
SciTegic.value.IntegerValue
463

@<SCITEGIC>MOL_PROPERTY
Probability
SciTegic.value.DoubleValue
0.00

@<SCITEGIC>MOL_PROPERTY
Sum Probability
SciTegic.value.DoubleValue
100.00

@<SCITEGIC>MOL_PROPERTY
Delta G
SciTegic.value.DoubleValue
9.599

@<SCITEGIC>MOL_PROPERTY
G
SciTegic.value.DoubleValue
1.637

@<SCITEGIC>MOL_PROPERTY
E
SciTegic.value.DoubleValue
-24.084

@<SCITEGIC>MOL_PROPERTY
-TS
SciTegic.value.DoubleValue
25.721

@<SCITEGIC>MOL_PROPERTY
U+W
SciTegic.value.DoubleValue
-44.652

@<SCITEGIC>MOL_PROPERTY
U
SciTegic.value.DoubleValue
16.286

@<SCITEGIC>MOL_PROPERTY
W
SciTegic.value.DoubleValue
-60.938

@<SCITEGIC>MOL_PROPERTY
W(PB)
SciTegic.value.DoubleValue
-63.286

@<SCITEGIC>MOL_PROPERTY
W(SA)
SciTegic.value.DoubleValue
2.348

@<SCITEGIC>MOL_PROPERTY
Valence
SciTegic.value.DoubleValue
13.053

@<SCITEGIC>MOL_PROPERTY
Coulomb
SciTegic.value.DoubleValue
2.895

@<SCITEGIC>MOL_PROPERTY
VdW
SciTegic.value.DoubleValue
0.338

@<SCITEGIC>MOL_PROPERTY
VdW6
SciTegic.value.DoubleValue
-12.524

@<SCITEGIC>MOL_PROPERTY
VdW12
SciTegic.value.DoubleValue
12.861

@<SCITEGIC>MOL_PROPERTY
Bond
SciTegic.value.DoubleValue
0.282

@<SCITEGIC>MOL_PROPERTY
Angle
SciTegic.value.DoubleValue
4.008

@<SCITEGIC>MOL_PROPERTY
Pdih
SciTegic.value.DoubleValue
8.740

@<SCITEGIC>MOL_PROPERTY
Idih
SciTegic.value.DoubleValue
0.022

@<SCITEGIC>MOL_PROPERTY
Tether
SciTegic.value.DoubleValue
0.000

@<TRIPOS>MOLECULE
guest-8_vm2.mol2 : vm2 ligand conformer 192
          25          24           1
SMALL
USER_CHARGES
 
@<TRIPOS>ATOM
       1    C1      20.452861   18.997162   26.750760 C.2        1 MOL1         0.6168
       2    O1      21.559917   19.498420   26.733025 O.co2      1 MOL1        -0.6703
       3    O2      19.754074   18.946454   27.744050 O.co2      1 MOL1        -0.6703
       4    C2      19.918945   18.374248   25.463814 C.3        1 MOL1        -0.1963
       5    H1      19.531768   17.381497   25.720788 H          1 MOL1         0.0750
       6    H2      20.761453   18.215048   24.784317 H          1 MOL1         0.0750
       7    C3      18.795745   19.202575   24.780192 C.3        1 MOL1        -0.1860
       8    H3      18.323870   18.613045   23.983239 H          1 MOL1         0.0752
       9    H4      18.008500   19.381008   25.525780 H          1 MOL1         0.0752
      10    C4      19.261960   20.569310   24.215759 C.3        1 MOL1        -0.1858
      11    H5      20.074863   20.982277   24.828343 H          1 MOL1         0.0752
      12    H6      18.427128   21.275337   24.322109 H          1 MOL1         0.0752
      13    C5      19.672700   20.568644   22.719464 C.3        1 MOL1        -0.1858
      14    H7      18.833132   20.222557   22.104020 H          1 MOL1         0.0752
      15    H8      19.837525   21.614825   22.428057 H          1 MOL1         0.0752
      16    C6      20.965233   19.779321   22.385263 C.3        1 MOL1        -0.1858
      17    H9      21.626364   19.772432   23.262179 H          1 MOL1         0.0752
      18    H10     21.519218   20.320757   21.606408 H          1 MOL1         0.0752
      19    C7      20.728658   18.330489   21.890786 C.3        1 MOL1        -0.1834
      20    H11     21.688321   17.795869   21.898694 H          1 MOL1         0.0752
      21    H12     20.068848   17.790595   22.580418 H          1 MOL1         0.0752
      22    C8      20.142906   18.267378   20.462887 C.3        1 MOL1        -0.2849
      23    H13     20.791940   18.790555   19.748722 H          1 MOL1         0.0764
      24    H14     20.050171   17.224809   20.132336 H          1 MOL1         0.0764
      25    H15     19.145618   18.721354   20.415303 H          1 MOL1         0.0764
@<TRIPOS>BOND
    1     1     2    1
    2     1     3    2
    3     1     4    1
    4     4     5    1
    5     4     6    1
    6     4     7    1
    7     7     8    1
    8     7     9    1
    9     7    10    1
   10    10    11    1
   11    10    12    1
   12    10    13    1
   13    13    14    1
   14    13    15    1
   15    13    16    1
   16    16    17    1
   17    16    18    1
   18    16    19    1
   19    19    20    1
   20    19    21    1
   21    19    22    1
   22    22    23    1
   23    22    24    1
   24    22    25    1
@<TRIPOS>SUBSTRUCTURE
       1 MOL1            1 RESIDUE      1      MOL     
@<SCITEGIC>MOL_PROPERTY
VM2 Rank
SciTegic.value.IntegerValue
192

@<SCITEGIC>MOL_PROPERTY
Conf_Id
SciTegic.value.IntegerValue
218

@<SCITEGIC>MOL_PROPERTY
Probability
SciTegic.value.DoubleValue
0.00

@<SCITEGIC>MOL_PROPERTY
Sum Probability
SciTegic.value.DoubleValue
100.00

@<SCITEGIC>MOL_PROPERTY
Delta G
SciTegic.value.DoubleValue
9.668

@<SCITEGIC>MOL_PROPERTY
G
SciTegic.value.DoubleValue
1.706

@<SCITEGIC>MOL_PROPERTY
E
SciTegic.value.DoubleValue
-23.981

@<SCITEGIC>MOL_PROPERTY
-TS
SciTegic.value.DoubleValue
25.687

@<SCITEGIC>MOL_PROPERTY
U+W
SciTegic.value.DoubleValue
-44.548

@<SCITEGIC>MOL_PROPERTY
U
SciTegic.value.DoubleValue
15.771

@<SCITEGIC>MOL_PROPERTY
W
SciTegic.value.DoubleValue
-60.320

@<SCITEGIC>MOL_PROPERTY
W(PB)
SciTegic.value.DoubleValue
-62.675

@<SCITEGIC>MOL_PROPERTY
W(SA)
SciTegic.value.DoubleValue
2.355

@<SCITEGIC>MOL_PROPERTY
Valence
SciTegic.value.DoubleValue
14.167

@<SCITEGIC>MOL_PROPERTY
Coulomb
SciTegic.value.DoubleValue
0.908

@<SCITEGIC>MOL_PROPERTY
VdW
SciTegic.value.DoubleValue
0.696

@<SCITEGIC>MOL_PROPERTY
VdW6
SciTegic.value.DoubleValue
-12.061

@<SCITEGIC>MOL_PROPERTY
VdW12
SciTegic.value.DoubleValue
12.757

@<SCITEGIC>MOL_PROPERTY
Bond
SciTegic.value.DoubleValue
0.324

@<SCITEGIC>MOL_PROPERTY
Angle
SciTegic.value.DoubleValue
4.148

@<SCITEGIC>MOL_PROPERTY
Pdih
SciTegic.value.DoubleValue
9.694

@<SCITEGIC>MOL_PROPERTY
Idih
SciTegic.value.DoubleValue
0.001

@<SCITEGIC>MOL_PROPERTY
Tether
SciTegic.value.DoubleValue
0.000

@<TRIPOS>MOLECULE
guest-8_vm2.mol2 : vm2 ligand conformer 193
          25          24           1
SMALL
USER_CHARGES
 
@<TRIPOS>ATOM
       1    C1      20.188967   19.178288   26.986219 C.2        1 MOL1         0.6168
       2    O1      21.203482   19.359999   27.630580 O.co2      1 MOL1        -0.6703
       3    O2      19.110988   19.655653   27.281487 O.co2      1 MOL1        -0.6703
       4    C2      20.270888   18.281386   25.754147 C.3        1 MOL1        -0.1963
       5    H1      19.256621   17.971804   25.479849 H          1 MOL1         0.0750
       6    H2      20.803444   17.370615   26.051698 H          1 MOL1         0.0750
       7    C3      21.000577   18.928867   24.544583 C.3        1 MOL1        -0.1860
       8    H3      22.014230   19.210873   24.860793 H          1 MOL1         0.0752
       9    H4      21.125846   18.175162   23.758801 H          1 MOL1         0.0752
      10    C4      20.292209   20.183534   23.969650 C.3        1 MOL1        -0.1858
      11    H5      20.974665   20.718809   23.296538 H          1 MOL1         0.0752
      12    H6      20.094297   20.880129   24.795624 H          1 MOL1         0.0752
      13    C5      18.959252   19.897320   23.229972 C.3        1 MOL1        -0.1858
      14    H7      18.459220   19.016076   23.649670 H          1 MOL1         0.0752
      15    H8      18.282182   20.738836   23.430151 H          1 MOL1         0.0752
      16    C6      19.068713   19.754238   21.688646 C.3        1 MOL1        -0.1858
      17    H9      19.500859   20.666203   21.254697 H          1 MOL1         0.0752
      18    H10     18.044709   19.697533   21.294914 H          1 MOL1         0.0752
      19    C7      19.835724   18.506320   21.186709 C.3        1 MOL1        -0.1834
      20    H11     19.741334   17.684448   21.908977 H          1 MOL1         0.0752
      21    H12     19.359049   18.152062   20.262333 H          1 MOL1         0.0752
      22    C8      21.322202   18.788395   20.874007 C.3        1 MOL1        -0.2849
      23    H13     21.819448   17.877056   20.517855 H          1 MOL1         0.0764
      24    H14     21.417713   19.551306   20.090584 H          1 MOL1         0.0764
      25    H15     21.864909   19.142726   21.757257 H          1 MOL1         0.0764
@<TRIPOS>BOND
    1     1     2    1
    2     1     3    2
    3     1     4    1
    4     4     5    1
    5     4     6    1
    6     4     7    1
    7     7     8    1
    8     7     9    1
    9     7    10    1
   10    10    11    1
   11    10    12    1
   12    10    13    1
   13    13    14    1
   14    13    15    1
   15    13    16    1
   16    16    17    1
   17    16    18    1
   18    16    19    1
   19    19    20    1
   20    19    21    1
   21    19    22    1
   22    22    23    1
   23    22    24    1
   24    22    25    1
@<TRIPOS>SUBSTRUCTURE
       1 MOL1            1 RESIDUE      1      MOL     
@<SCITEGIC>MOL_PROPERTY
VM2 Rank
SciTegic.value.IntegerValue
193

@<SCITEGIC>MOL_PROPERTY
Conf_Id
SciTegic.value.IntegerValue
268

@<SCITEGIC>MOL_PROPERTY
Probability
SciTegic.value.DoubleValue
0.00

@<SCITEGIC>MOL_PROPERTY
Sum Probability
SciTegic.value.DoubleValue
100.00

@<SCITEGIC>MOL_PROPERTY
Delta G
SciTegic.value.DoubleValue
9.709

@<SCITEGIC>MOL_PROPERTY
G
SciTegic.value.DoubleValue
1.747

@<SCITEGIC>MOL_PROPERTY
E
SciTegic.value.DoubleValue
-23.791

@<SCITEGIC>MOL_PROPERTY
-TS
SciTegic.value.DoubleValue
25.538

@<SCITEGIC>MOL_PROPERTY
U+W
SciTegic.value.DoubleValue
-44.359

@<SCITEGIC>MOL_PROPERTY
U
SciTegic.value.DoubleValue
15.815

@<SCITEGIC>MOL_PROPERTY
W
SciTegic.value.DoubleValue
-60.174

@<SCITEGIC>MOL_PROPERTY
W(PB)
SciTegic.value.DoubleValue
-62.541

@<SCITEGIC>MOL_PROPERTY
W(SA)
SciTegic.value.DoubleValue
2.367

@<SCITEGIC>MOL_PROPERTY
Valence
SciTegic.value.DoubleValue
14.172

@<SCITEGIC>MOL_PROPERTY
Coulomb
SciTegic.value.DoubleValue
0.907

@<SCITEGIC>MOL_PROPERTY
VdW
SciTegic.value.DoubleValue
0.736

@<SCITEGIC>MOL_PROPERTY
VdW6
SciTegic.value.DoubleValue
-11.919

@<SCITEGIC>MOL_PROPERTY
VdW12
SciTegic.value.DoubleValue
12.656

@<SCITEGIC>MOL_PROPERTY
Bond
SciTegic.value.DoubleValue
0.329

@<SCITEGIC>MOL_PROPERTY
Angle
SciTegic.value.DoubleValue
4.231

@<SCITEGIC>MOL_PROPERTY
Pdih
SciTegic.value.DoubleValue
9.612

@<SCITEGIC>MOL_PROPERTY
Idih
SciTegic.value.DoubleValue
0.001

@<SCITEGIC>MOL_PROPERTY
Tether
SciTegic.value.DoubleValue
0.000

@<TRIPOS>MOLECULE
guest-8_vm2.mol2 : vm2 ligand conformer 194
          25          24           1
SMALL
USER_CHARGES
 
@<TRIPOS>ATOM
       1    C1      19.896424   19.770856   26.364753 C.2        1 MOL1         0.6168
       2    O1      20.931311   20.261199   26.772363 O.co2      1 MOL1        -0.6703
       3    O2      18.896750   20.416731   26.118410 O.co2      1 MOL1        -0.6703
       4    C2      19.825583   18.253819   26.218105 C.3        1 MOL1        -0.1963
       5    H1      18.916054   17.928197   26.736309 H          1 MOL1         0.0750
       6    H2      20.669195   17.809555   26.759839 H          1 MOL1         0.0750
       7    C3      19.790802   17.730602   24.754865 C.3        1 MOL1        -0.1860
       8    H3      19.518739   16.667157   24.788459 H          1 MOL1         0.0752
       9    H4      18.987236   18.230331   24.200662 H          1 MOL1         0.0752
      10    C4      21.142374   17.851761   24.003525 C.3        1 MOL1        -0.1858
      11    H5      21.185070   17.090129   23.213195 H          1 MOL1         0.0752
      12    H6      21.953882   17.597231   24.698768 H          1 MOL1         0.0752
      13    C5      21.429190   19.243515   23.378922 C.3        1 MOL1        -0.1858
      14    H7      20.943430   20.043148   23.949477 H          1 MOL1         0.0752
      15    H8      22.506711   19.435928   23.469431 H          1 MOL1         0.0752
      16    C6      21.064026   19.357292   21.875254 C.3        1 MOL1        -0.1858
      17    H9      21.609384   18.583043   21.318768 H          1 MOL1         0.0752
      18    H10     21.436207   20.318011   21.494364 H          1 MOL1         0.0752
      19    C7      19.557457   19.242916   21.542008 C.3        1 MOL1        -0.1834
      20    H11     19.440715   19.235587   20.449691 H          1 MOL1         0.0752
      21    H12     19.163548   18.281123   21.894589 H          1 MOL1         0.0752
      22    C8      18.719083   20.405309   22.117795 C.3        1 MOL1        -0.2849
      23    H13     18.747025   20.417838   23.214854 H          1 MOL1         0.0764
      24    H14     19.090848   21.372806   21.756686 H          1 MOL1         0.0764
      25    H15     17.669257   20.310756   21.812223 H          1 MOL1         0.0764
@<TRIPOS>BOND
    1     1     2    1
    2     1     3    2
    3     1     4    1
    4     4     5    1
    5     4     6    1
    6     4     7    1
    7     7     8    1
    8     7     9    1
    9     7    10    1
   10    10    11    1
   11    10    12    1
   12    10    13    1
   13    13    14    1
   14    13    15    1
   15    13    16    1
   16    16    17    1
   17    16    18    1
   18    16    19    1
   19    19    20    1
   20    19    21    1
   21    19    22    1
   22    22    23    1
   23    22    24    1
   24    22    25    1
@<TRIPOS>SUBSTRUCTURE
       1 MOL1            1 RESIDUE      1      MOL     
@<SCITEGIC>MOL_PROPERTY
VM2 Rank
SciTegic.value.IntegerValue
194

@<SCITEGIC>MOL_PROPERTY
Conf_Id
SciTegic.value.IntegerValue
277

@<SCITEGIC>MOL_PROPERTY
Probability
SciTegic.value.DoubleValue
0.00

@<SCITEGIC>MOL_PROPERTY
Sum Probability
SciTegic.value.DoubleValue
100.00

@<SCITEGIC>MOL_PROPERTY
Delta G
SciTegic.value.DoubleValue
9.740

@<SCITEGIC>MOL_PROPERTY
G
SciTegic.value.DoubleValue
1.777

@<SCITEGIC>MOL_PROPERTY
E
SciTegic.value.DoubleValue
-24.251

@<SCITEGIC>MOL_PROPERTY
-TS
SciTegic.value.DoubleValue
26.028

@<SCITEGIC>MOL_PROPERTY
U+W
SciTegic.value.DoubleValue
-44.819

@<SCITEGIC>MOL_PROPERTY
U
SciTegic.value.DoubleValue
16.612

@<SCITEGIC>MOL_PROPERTY
W
SciTegic.value.DoubleValue
-61.431

@<SCITEGIC>MOL_PROPERTY
W(PB)
SciTegic.value.DoubleValue
-63.709

@<SCITEGIC>MOL_PROPERTY
W(SA)
SciTegic.value.DoubleValue
2.277

@<SCITEGIC>MOL_PROPERTY
Valence
SciTegic.value.DoubleValue
13.358

@<SCITEGIC>MOL_PROPERTY
Coulomb
SciTegic.value.DoubleValue
3.088

@<SCITEGIC>MOL_PROPERTY
VdW
SciTegic.value.DoubleValue
0.167

@<SCITEGIC>MOL_PROPERTY
VdW6
SciTegic.value.DoubleValue
-12.848

@<SCITEGIC>MOL_PROPERTY
VdW12
SciTegic.value.DoubleValue
13.015

@<SCITEGIC>MOL_PROPERTY
Bond
SciTegic.value.DoubleValue
0.326

@<SCITEGIC>MOL_PROPERTY
Angle
SciTegic.value.DoubleValue
4.202

@<SCITEGIC>MOL_PROPERTY
Pdih
SciTegic.value.DoubleValue
8.823

@<SCITEGIC>MOL_PROPERTY
Idih
SciTegic.value.DoubleValue
0.006

@<SCITEGIC>MOL_PROPERTY
Tether
SciTegic.value.DoubleValue
0.000

@<TRIPOS>MOLECULE
guest-8_vm2.mol2 : vm2 ligand conformer 195
          25          24           1
SMALL
USER_CHARGES
 
@<TRIPOS>ATOM
       1    C1      20.644445   19.185355   26.464449 C.2        1 MOL1         0.6168
       2    O1      21.834163   19.356966   26.285334 O.co2      1 MOL1        -0.6703
       3    O2      20.188370   18.207527   27.024987 O.co2      1 MOL1        -0.6703
       4    C2      19.689658   20.309836   26.061985 C.3        1 MOL1        -0.1963
       5    H1      20.240233   21.050562   25.469752 H          1 MOL1         0.0750
       6    H2      19.398268   20.808238   26.993553 H          1 MOL1         0.0750
       7    C3      18.405077   19.864636   25.306322 C.3        1 MOL1        -0.1860
       8    H3      17.995739   18.953473   25.764131 H          1 MOL1         0.0752
       9    H4      17.641468   20.640414   25.452615 H          1 MOL1         0.0752
      10    C4      18.575939   19.659992   23.779262 C.3        1 MOL1        -0.1858
      11    H5      18.901338   20.600366   23.317915 H          1 MOL1         0.0752
      12    H6      17.582337   19.453932   23.358641 H          1 MOL1         0.0752
      13    C5      19.515656   18.492178   23.380847 C.3        1 MOL1        -0.1858
      14    H7      19.615279   17.797012   24.225274 H          1 MOL1         0.0752
      15    H8      19.042249   17.904893   22.584328 H          1 MOL1         0.0752
      16    C6      20.927128   18.937170   22.915960 C.3        1 MOL1        -0.1858
      17    H9      21.569970   18.049388   22.846359 H          1 MOL1         0.0752
      18    H10     21.378820   19.574128   23.686419 H          1 MOL1         0.0752
      19    C7      20.971213   19.688763   21.561151 C.3        1 MOL1        -0.1834
      20    H11     20.374345   20.608275   21.611436 H          1 MOL1         0.0752
      21    H12     22.005817   20.009006   21.376652 H          1 MOL1         0.0752
      22    C8      20.501350   18.831578   20.365703 C.3        1 MOL1        -0.2849
      23    H13     19.432248   18.596406   20.437557 H          1 MOL1         0.0764
      24    H14     20.658975   19.370173   19.422373 H          1 MOL1         0.0764
      25    H15     21.060432   17.888312   20.314017 H          1 MOL1         0.0764
@<TRIPOS>BOND
    1     1     2    1
    2     1     3    2
    3     1     4    1
    4     4     5    1
    5     4     6    1
    6     4     7    1
    7     7     8    1
    8     7     9    1
    9     7    10    1
   10    10    11    1
   11    10    12    1
   12    10    13    1
   13    13    14    1
   14    13    15    1
   15    13    16    1
   16    16    17    1
   17    16    18    1
   18    16    19    1
   19    19    20    1
   20    19    21    1
   21    19    22    1
   22    22    23    1
   23    22    24    1
   24    22    25    1
@<TRIPOS>SUBSTRUCTURE
       1 MOL1            1 RESIDUE      1      MOL     
@<SCITEGIC>MOL_PROPERTY
VM2 Rank
SciTegic.value.IntegerValue
195

@<SCITEGIC>MOL_PROPERTY
Conf_Id
SciTegic.value.IntegerValue
442

@<SCITEGIC>MOL_PROPERTY
Probability
SciTegic.value.DoubleValue
0.00

@<SCITEGIC>MOL_PROPERTY
Sum Probability
SciTegic.value.DoubleValue
100.00

@<SCITEGIC>MOL_PROPERTY
Delta G
SciTegic.value.DoubleValue
9.767

@<SCITEGIC>MOL_PROPERTY
G
SciTegic.value.DoubleValue
1.805

@<SCITEGIC>MOL_PROPERTY
E
SciTegic.value.DoubleValue
-23.717

@<SCITEGIC>MOL_PROPERTY
-TS
SciTegic.value.DoubleValue
25.522

@<SCITEGIC>MOL_PROPERTY
U+W
SciTegic.value.DoubleValue
-44.285

@<SCITEGIC>MOL_PROPERTY
U
SciTegic.value.DoubleValue
16.438

@<SCITEGIC>MOL_PROPERTY
W
SciTegic.value.DoubleValue
-60.723

@<SCITEGIC>MOL_PROPERTY
W(PB)
SciTegic.value.DoubleValue
-63.069

@<SCITEGIC>MOL_PROPERTY
W(SA)
SciTegic.value.DoubleValue
2.346

@<SCITEGIC>MOL_PROPERTY
Valence
SciTegic.value.DoubleValue
13.852

@<SCITEGIC>MOL_PROPERTY
Coulomb
SciTegic.value.DoubleValue
1.849

@<SCITEGIC>MOL_PROPERTY
VdW
SciTegic.value.DoubleValue
0.737

@<SCITEGIC>MOL_PROPERTY
VdW6
SciTegic.value.DoubleValue
-12.634

@<SCITEGIC>MOL_PROPERTY
VdW12
SciTegic.value.DoubleValue
13.371

@<SCITEGIC>MOL_PROPERTY
Bond
SciTegic.value.DoubleValue
0.340

@<SCITEGIC>MOL_PROPERTY
Angle
SciTegic.value.DoubleValue
4.369

@<SCITEGIC>MOL_PROPERTY
Pdih
SciTegic.value.DoubleValue
9.126

@<SCITEGIC>MOL_PROPERTY
Idih
SciTegic.value.DoubleValue
0.017

@<SCITEGIC>MOL_PROPERTY
Tether
SciTegic.value.DoubleValue
0.000

