VeraChem MOL file


 20 19  0  0  0  0  0  0  0  0999 V2000     
   19.8543   19.1510   18.8169 C   0  0  0  0  0  0  0  0  0  0  0  0
   18.7731   18.9826   18.7279 H   0  0  0  0  0  0  0  0  0  0  0  0
   20.0355   20.2331   18.7809 H   0  0  0  0  0  0  0  0  0  0  0  0
   20.3379   18.6999   17.9408 H   0  0  0  0  0  0  0  0  0  0  0  0
   20.4073   18.5375   20.1216 C   0  0  0  0  0  0  0  0  0  0  0  0
   21.4948   18.6914   20.1651 H   0  0  0  0  0  0  0  0  0  0  0  0
   20.2423   17.4507   20.1126 H   0  0  0  0  0  0  0  0  0  0  0  0
   19.7440   19.1542   21.3727 C   0  0  0  0  0  0  0  0  0  0  0  0
   19.9122   20.2394   21.3827 H   0  0  0  0  0  0  0  0  0  0  0  0
   18.6579   18.9971   21.3302 H   0  0  0  0  0  0  0  0  0  0  0  0
   20.3006   18.5374   22.6694 C   0  0  0  0  0  0  0  0  0  0  0  0
   21.3792   18.7056   22.7224 H   0  0  0  0  0  0  0  0  0  0  0  0
   20.1208   17.4593   22.6697 H   0  0  0  0  0  0  0  0  0  0  0  0
   19.6776   19.1133   23.9259 N   0  3  0  0  0  0  0  0  0  0  0  0
   18.6547   18.9807   23.9099 H   0  0  0  0  0  0  0  0  0  0  0  0
   19.8198   20.1345   23.9587 H   0  0  0  0  0  0  0  0  0  0  0  0
   20.2823   18.4506   25.1565 C   0  0  0  0  0  0  0  0  0  0  0  0
   21.3590   18.6330   25.1710 H   0  0  0  0  0  0  0  0  0  0  0  0
   19.8251   18.8744   26.0534 H   0  0  0  0  0  0  0  0  0  0  0  0
   20.0900   17.3762   25.1179 H   0  0  0  0  0  0  0  0  0  0  0  0
  1  2  1  0  0  0  0
  1  3  1  0  0  0  0
  1  4  1  0  0  0  0
  1  5  1  0  0  0  0
  5  6  1  0  0  0  0
  5  7  1  0  0  0  0
  5  8  1  0  0  0  0
  8  9  1  0  0  0  0
  8 10  1  0  0  0  0
  8 11  1  0  0  0  0
 11 12  1  0  0  0  0
 11 13  1  0  0  0  0
 11 14  1  0  0  0  0
 14 15  1  0  0  0  0
 14 16  1  0  0  0  0
 14 17  1  0  0  0  0
 17 18  1  0  0  0  0
 17 19  1  0  0  0  0
 17 20  1  0  0  0  0
M  END
> <VM2 Rank>
1

> <Conf_Id>
97

> <Probability>
13.58

> <Sum Probability>
13.58

> <Delta G>
0.000

> <G>
53.937

> <E>
31.435

> <-TS>
22.502

> <U+W>
15.338

> <U>
69.277

> <W>
-53.938

> <W(PB)>
-55.889

> <W(SA)>
1.950

> <Valence>
0.846

> <Coulomb>
68.557

> <VdW>
-0.126

> <VdW6>
-3.008

> <VdW12>
2.882

> <Bond>
0.088

> <Angle>
0.332

> <Pdih>
0.426

> <Idih>
0.000

> <Tether>
0.000

$$$$
VeraChem MOL file


 20 19  0  0  0  0  0  0  0  0999 V2000     
   20.2447   19.5234   19.0575 C   0  0  0  0  0  0  0  0  0  0  0  0
   21.0844   20.2045   19.2476 H   0  0  0  0  0  0  0  0  0  0  0  0
   20.4069   19.0551   18.0781 H   0  0  0  0  0  0  0  0  0  0  0  0
   19.3265   20.1220   18.9959 H   0  0  0  0  0  0  0  0  0  0  0  0
   20.1366   18.4514   20.1636 C   0  0  0  0  0  0  0  0  0  0  0  0
   21.0549   17.8474   20.1778 H   0  0  0  0  0  0  0  0  0  0  0  0
   19.3110   17.7652   19.9275 H   0  0  0  0  0  0  0  0  0  0  0  0
   19.9075   19.0821   21.5548 C   0  0  0  0  0  0  0  0  0  0  0  0
   20.7340   19.7663   21.7862 H   0  0  0  0  0  0  0  0  0  0  0  0
   18.9878   19.6817   21.5411 H   0  0  0  0  0  0  0  0  0  0  0  0
   19.7994   18.0036   22.6525 C   0  0  0  0  0  0  0  0  0  0  0  0
   20.7302   17.4333   22.7055 H   0  0  0  0  0  0  0  0  0  0  0  0
   18.9939   17.3122   22.3922 H   0  0  0  0  0  0  0  0  0  0  0  0
   19.5006   18.5424   24.0421 N   0  3  0  0  0  0  0  0  0  0  0  0
   19.2826   17.7581   24.6768 H   0  0  0  0  0  0  0  0  0  0  0  0
   18.6431   19.1153   24.0266 H   0  0  0  0  0  0  0  0  0  0  0  0
   20.6772   19.3412   24.5924 C   0  0  0  0  0  0  0  0  0  0  0  0
   20.8594   20.2065   23.9521 H   0  0  0  0  0  0  0  0  0  0  0  0
   20.4391   19.6780   25.6037 H   0  0  0  0  0  0  0  0  0  0  0  0
   21.5643   18.7046   24.6162 H   0  0  0  0  0  0  0  0  0  0  0  0
  1  2  1  0  0  0  0
  1  3  1  0  0  0  0
  1  4  1  0  0  0  0
  1  5  1  0  0  0  0
  5  6  1  0  0  0  0
  5  7  1  0  0  0  0
  5  8  1  0  0  0  0
  8  9  1  0  0  0  0
  8 10  1  0  0  0  0
  8 11  1  0  0  0  0
 11 12  1  0  0  0  0
 11 13  1  0  0  0  0
 11 14  1  0  0  0  0
 14 15  1  0  0  0  0
 14 16  1  0  0  0  0
 14 17  1  0  0  0  0
 17 18  1  0  0  0  0
 17 19  1  0  0  0  0
 17 20  1  0  0  0  0
M  END
> <VM2 Rank>
2

> <Conf_Id>
37

> <Probability>
10.60

> <Sum Probability>
24.18

> <Delta G>
0.147

> <G>
54.084

> <E>
31.414

> <-TS>
22.671

> <U+W>
15.318

> <U>
69.657

> <W>
-54.337

> <W(PB)>
-56.236

> <W(SA)>
1.899

> <Valence>
1.137

> <Coulomb>
68.383

> <VdW>
0.138

> <VdW6>
-3.703

> <VdW12>
3.841

> <Bond>
0.125

> <Angle>
0.468

> <Pdih>
0.543

> <Idih>
0.000

> <Tether>
0.000

$$$$
VeraChem MOL file


 20 19  0  0  0  0  0  0  0  0999 V2000     
   19.4687   18.7548   19.0250 C   0  0  0  0  0  0  0  0  0  0  0  0
   18.8814   19.6811   18.9772 H   0  0  0  0  0  0  0  0  0  0  0  0
   19.9766   18.6288   18.0600 H   0  0  0  0  0  0  0  0  0  0  0  0
   18.7728   17.9152   19.1507 H   0  0  0  0  0  0  0  0  0  0  0  0
   20.4939   18.8052   20.1786 C   0  0  0  0  0  0  0  0  0  0  0  0
   21.1967   19.6326   20.0065 H   0  0  0  0  0  0  0  0  0  0  0  0
   21.0886   17.8807   20.1793 H   0  0  0  0  0  0  0  0  0  0  0  0
   19.8069   18.9825   21.5506 C   0  0  0  0  0  0  0  0  0  0  0  0
   19.2164   19.9083   21.5506 H   0  0  0  0  0  0  0  0  0  0  0  0
   19.1063   18.1543   21.7180 H   0  0  0  0  0  0  0  0  0  0  0  0
   20.8390   19.0333   22.6960 C   0  0  0  0  0  0  0  0  0  0  0  0
   21.5477   19.8418   22.4992 H   0  0  0  0  0  0  0  0  0  0  0  0
   21.3984   18.0952   22.7335 H   0  0  0  0  0  0  0  0  0  0  0  0
   20.2445   19.2793   24.0733 N   0  3  0  0  0  0  0  0  0  0  0  0
   19.6801   20.1426   24.0700 H   0  0  0  0  0  0  0  0  0  0  0  0
   21.0030   19.4625   24.7488 H   0  0  0  0  0  0  0  0  0  0  0  0
   19.4131   18.0889   24.5395 C   0  0  0  0  0  0  0  0  0  0  0  0
   20.0405   17.1952   24.5523 H   0  0  0  0  0  0  0  0  0  0  0  0
   19.0360   18.2880   25.5450 H   0  0  0  0  0  0  0  0  0  0  0  0
   18.5741   17.9427   23.8564 H   0  0  0  0  0  0  0  0  0  0  0  0
  1  2  1  0  0  0  0
  1  3  1  0  0  0  0
  1  4  1  0  0  0  0
  1  5  1  0  0  0  0
  5  6  1  0  0  0  0
  5  7  1  0  0  0  0
  5  8  1  0  0  0  0
  8  9  1  0  0  0  0
  8 10  1  0  0  0  0
  8 11  1  0  0  0  0
 11 12  1  0  0  0  0
 11 13  1  0  0  0  0
 11 14  1  0  0  0  0
 14 15  1  0  0  0  0
 14 16  1  0  0  0  0
 14 17  1  0  0  0  0
 17 18  1  0  0  0  0
 17 19  1  0  0  0  0
 17 20  1  0  0  0  0
M  END
> <VM2 Rank>
3

> <Conf_Id>
81

> <Probability>
9.13

> <Sum Probability>
33.31

> <Delta G>
0.237

> <G>
54.174

> <E>
31.503

> <-TS>
22.670

> <U+W>
15.407

> <U>
69.657

> <W>
-54.250

> <W(PB)>
-56.176

> <W(SA)>
1.926

> <Valence>
1.137

> <Coulomb>
68.383

> <VdW>
0.138

> <VdW6>
-3.703

> <VdW12>
3.841

> <Bond>
0.125

> <Angle>
0.468

> <Pdih>
0.543

> <Idih>
0.000

> <Tether>
0.000

$$$$
VeraChem MOL file


 20 19  0  0  0  0  0  0  0  0999 V2000     
   20.8667   19.3664   19.5193 C   0  0  0  0  0  0  0  0  0  0  0  0
   20.5577   20.4198   19.5220 H   0  0  0  0  0  0  0  0  0  0  0  0
   21.7364   19.2626   20.1803 H   0  0  0  0  0  0  0  0  0  0  0  0
   21.1933   19.1163   18.5016 H   0  0  0  0  0  0  0  0  0  0  0  0
   19.7057   18.4446   19.9580 C   0  0  0  0  0  0  0  0  0  0  0  0
   20.0429   17.3984   19.9527 H   0  0  0  0  0  0  0  0  0  0  0  0
   18.8958   18.5113   19.2180 H   0  0  0  0  0  0  0  0  0  0  0  0
   19.1424   18.8036   21.3530 C   0  0  0  0  0  0  0  0  0  0  0  0
   18.7742   19.8381   21.3461 H   0  0  0  0  0  0  0  0  0  0  0  0
   18.2762   18.1626   21.5643 H   0  0  0  0  0  0  0  0  0  0  0  0
   20.1840   18.6323   22.4760 C   0  0  0  0  0  0  0  0  0  0  0  0
   21.0330   19.2958   22.2953 H   0  0  0  0  0  0  0  0  0  0  0  0
   20.5484   17.6020   22.4843 H   0  0  0  0  0  0  0  0  0  0  0  0
   19.6384   18.9445   23.8556 N   0  3  0  0  0  0  0  0  0  0  0  0
   18.8280   18.3411   24.0636 H   0  0  0  0  0  0  0  0  0  0  0  0
   19.2749   19.9094   23.8853 H   0  0  0  0  0  0  0  0  0  0  0  0
   20.7289   18.7527   24.9011 C   0  0  0  0  0  0  0  0  0  0  0  0
   21.0741   17.7168   24.8752 H   0  0  0  0  0  0  0  0  0  0  0  0
   21.5608   19.4252   24.6811 H   0  0  0  0  0  0  0  0  0  0  0  0
   20.3227   18.9806   25.8891 H   0  0  0  0  0  0  0  0  0  0  0  0
  1  2  1  0  0  0  0
  1  3  1  0  0  0  0
  1  4  1  0  0  0  0
  1  5  1  0  0  0  0
  5  6  1  0  0  0  0
  5  7  1  0  0  0  0
  5  8  1  0  0  0  0
  8  9  1  0  0  0  0
  8 10  1  0  0  0  0
  8 11  1  0  0  0  0
 11 12  1  0  0  0  0
 11 13  1  0  0  0  0
 11 14  1  0  0  0  0
 14 15  1  0  0  0  0
 14 16  1  0  0  0  0
 14 17  1  0  0  0  0
 17 18  1  0  0  0  0
 17 19  1  0  0  0  0
 17 20  1  0  0  0  0
M  END
> <VM2 Rank>
4

> <Conf_Id>
279

> <Probability>
7.34

> <Sum Probability>
40.65

> <Delta G>
0.366

> <G>
54.304

> <E>
31.705

> <-TS>
22.599

> <U+W>
15.608

> <U>
69.798

> <W>
-54.190

> <W(PB)>
-56.122

> <W(SA)>
1.932

> <Valence>
1.134

> <Coulomb>
68.735

> <VdW>
-0.070

> <VdW6>
-3.565

> <VdW12>
3.494

> <Bond>
0.108

> <Angle>
0.456

> <Pdih>
0.569

> <Idih>
0.000

> <Tether>
0.000

$$$$
VeraChem MOL file


 20 19  0  0  0  0  0  0  0  0999 V2000     
   19.6007   18.1122   19.4663 C   0  0  0  0  0  0  0  0  0  0  0  0
   19.6692   17.2146   20.0938 H   0  0  0  0  0  0  0  0  0  0  0  0
   18.5508   18.4315   19.4379 H   0  0  0  0  0  0  0  0  0  0  0  0
   19.8910   17.8258   18.4471 H   0  0  0  0  0  0  0  0  0  0  0  0
   20.5130   19.2444   19.9918 C   0  0  0  0  0  0  0  0  0  0  0  0
   20.4843   20.0852   19.2845 H   0  0  0  0  0  0  0  0  0  0  0  0
   21.5556   18.8971   20.0161 H   0  0  0  0  0  0  0  0  0  0  0  0
   20.1001   19.7524   21.3931 C   0  0  0  0  0  0  0  0  0  0  0  0
   20.7390   20.6024   21.6675 H   0  0  0  0  0  0  0  0  0  0  0  0
   19.0700   20.1312   21.3585 H   0  0  0  0  0  0  0  0  0  0  0  0
   20.2150   18.6631   22.4773 C   0  0  0  0  0  0  0  0  0  0  0  0
   21.2409   18.2879   22.5132 H   0  0  0  0  0  0  0  0  0  0  0  0
   19.5524   17.8293   22.2333 H   0  0  0  0  0  0  0  0  0  0  0  0
   19.8497   19.1536   23.8645 N   0  3  0  0  0  0  0  0  0  0  0  0
   18.8876   19.5258   23.8691 H   0  0  0  0  0  0  0  0  0  0  0  0
   20.4509   19.9481   24.1317 H   0  0  0  0  0  0  0  0  0  0  0  0
   19.9874   18.0183   24.8700 C   0  0  0  0  0  0  0  0  0  0  0  0
   21.0203   17.6633   24.8727 H   0  0  0  0  0  0  0  0  0  0  0  0
   19.7216   18.3850   25.8639 H   0  0  0  0  0  0  0  0  0  0  0  0
   19.3174   17.2035   24.5870 H   0  0  0  0  0  0  0  0  0  0  0  0
  1  2  1  0  0  0  0
  1  3  1  0  0  0  0
  1  4  1  0  0  0  0
  1  5  1  0  0  0  0
  5  6  1  0  0  0  0
  5  7  1  0  0  0  0
  5  8  1  0  0  0  0
  8  9  1  0  0  0  0
  8 10  1  0  0  0  0
  8 11  1  0  0  0  0
 11 12  1  0  0  0  0
 11 13  1  0  0  0  0
 11 14  1  0  0  0  0
 14 15  1  0  0  0  0
 14 16  1  0  0  0  0
 14 17  1  0  0  0  0
 17 18  1  0  0  0  0
 17 19  1  0  0  0  0
 17 20  1  0  0  0  0
M  END
> <VM2 Rank>
5

> <Conf_Id>
34

> <Probability>
7.27

> <Sum Probability>
47.91

> <Delta G>
0.373

> <G>
54.310

> <E>
31.711

> <-TS>
22.599

> <U+W>
15.615

> <U>
69.798

> <W>
-54.184

> <W(PB)>
-56.116

> <W(SA)>
1.933

> <Valence>
1.134

> <Coulomb>
68.735

> <VdW>
-0.070

> <VdW6>
-3.565

> <VdW12>
3.494

> <Bond>
0.108

> <Angle>
0.456

> <Pdih>
0.569

> <Idih>
0.000

> <Tether>
0.000

$$$$
VeraChem MOL file


 20 19  0  0  0  0  0  0  0  0999 V2000     
   19.6845   18.8158   18.9888 C   0  0  0  0  0  0  0  0  0  0  0  0
   18.8182   19.4884   18.9412 H   0  0  0  0  0  0  0  0  0  0  0  0
   20.5416   19.3302   18.5351 H   0  0  0  0  0  0  0  0  0  0  0  0
   19.4592   17.9337   18.3755 H   0  0  0  0  0  0  0  0  0  0  0  0
   19.9895   18.4042   20.4454 C   0  0  0  0  0  0  0  0  0  0  0  0
   20.8398   17.7076   20.4565 H   0  0  0  0  0  0  0  0  0  0  0  0
   19.1273   17.8585   20.8519 H   0  0  0  0  0  0  0  0  0  0  0  0
   20.3100   19.6310   21.3317 C   0  0  0  0  0  0  0  0  0  0  0  0
   21.1481   20.1874   20.8914 H   0  0  0  0  0  0  0  0  0  0  0  0
   19.4536   20.3182   21.3480 H   0  0  0  0  0  0  0  0  0  0  0  0
   20.6878   19.2436   22.7755 C   0  0  0  0  0  0  0  0  0  0  0  0
   20.9885   20.1404   23.3232 H   0  0  0  0  0  0  0  0  0  0  0  0
   21.5357   18.5541   22.7609 H   0  0  0  0  0  0  0  0  0  0  0  0
   19.5633   18.5876   23.5547 N   0  3  0  0  0  0  0  0  0  0  0  0
   19.2486   17.7326   23.0728 H   0  0  0  0  0  0  0  0  0  0  0  0
   18.7396   19.2080   23.5803 H   0  0  0  0  0  0  0  0  0  0  0  0
   20.0308   18.2619   24.9669 C   0  0  0  0  0  0  0  0  0  0  0  0
   19.2126   17.7906   25.5160 H   0  0  0  0  0  0  0  0  0  0  0  0
   20.8814   17.5788   24.9159 H   0  0  0  0  0  0  0  0  0  0  0  0
   20.3277   19.1849   25.4695 H   0  0  0  0  0  0  0  0  0  0  0  0
  1  2  1  0  0  0  0
  1  3  1  0  0  0  0
  1  4  1  0  0  0  0
  1  5  1  0  0  0  0
  5  6  1  0  0  0  0
  5  7  1  0  0  0  0
  5  8  1  0  0  0  0
  8  9  1  0  0  0  0
  8 10  1  0  0  0  0
  8 11  1  0  0  0  0
 11 12  1  0  0  0  0
 11 13  1  0  0  0  0
 11 14  1  0  0  0  0
 14 15  1  0  0  0  0
 14 16  1  0  0  0  0
 14 17  1  0  0  0  0
 17 18  1  0  0  0  0
 17 19  1  0  0  0  0
 17 20  1  0  0  0  0
M  END
> <VM2 Rank>
6

> <Conf_Id>
228

> <Probability>
6.88

> <Sum Probability>
54.80

> <Delta G>
0.405

> <G>
54.342

> <E>
31.753

> <-TS>
22.589

> <U+W>
15.657

> <U>
69.962

> <W>
-54.305

> <W(PB)>
-56.223

> <W(SA)>
1.918

> <Valence>
0.982

> <Coulomb>
69.057

> <VdW>
-0.078

> <VdW6>
-3.548

> <VdW12>
3.471

> <Bond>
0.105

> <Angle>
0.408

> <Pdih>
0.469

> <Idih>
0.000

> <Tether>
0.000

$$$$
VeraChem MOL file


 20 19  0  0  0  0  0  0  0  0999 V2000     
   20.1835   19.3100   19.0098 C   0  0  0  0  0  0  0  0  0  0  0  0
   19.6812   18.4781   18.4990 H   0  0  0  0  0  0  0  0  0  0  0  0
   19.5210   20.1845   18.9707 H   0  0  0  0  0  0  0  0  0  0  0  0
   21.0926   19.5515   18.4440 H   0  0  0  0  0  0  0  0  0  0  0  0
   20.5304   18.9398   20.4681 C   0  0  0  0  0  0  0  0  0  0  0  0
   21.0660   19.7785   20.9332 H   0  0  0  0  0  0  0  0  0  0  0  0
   21.2184   18.0826   20.4723 H   0  0  0  0  0  0  0  0  0  0  0  0
   19.2645   18.5954   21.2879 C   0  0  0  0  0  0  0  0  0  0  0  0
   18.5847   19.4575   21.3115 H   0  0  0  0  0  0  0  0  0  0  0  0
   18.7198   17.7824   20.7897 H   0  0  0  0  0  0  0  0  0  0  0  0
   19.5872   18.1535   22.7294 C   0  0  0  0  0  0  0  0  0  0  0  0
   20.2692   17.2998   22.7079 H   0  0  0  0  0  0  0  0  0  0  0  0
   18.6654   17.8396   23.2259 H   0  0  0  0  0  0  0  0  0  0  0  0
   20.2194   19.2374   23.5822 N   0  3  0  0  0  0  0  0  0  0  0  0
   19.6057   20.0658   23.6166 H   0  0  0  0  0  0  0  0  0  0  0  0
   21.0967   19.5631   23.1501 H   0  0  0  0  0  0  0  0  0  0  0  0
   20.4812   18.7079   24.9857 C   0  0  0  0  0  0  0  0  0  0  0  0
   21.1583   17.8530   24.9274 H   0  0  0  0  0  0  0  0  0  0  0  0
   20.9360   19.4974   25.5881 H   0  0  0  0  0  0  0  0  0  0  0  0
   19.5352   18.3999   25.4363 H   0  0  0  0  0  0  0  0  0  0  0  0
  1  2  1  0  0  0  0
  1  3  1  0  0  0  0
  1  4  1  0  0  0  0
  1  5  1  0  0  0  0
  5  6  1  0  0  0  0
  5  7  1  0  0  0  0
  5  8  1  0  0  0  0
  8  9  1  0  0  0  0
  8 10  1  0  0  0  0
  8 11  1  0  0  0  0
 11 12  1  0  0  0  0
 11 13  1  0  0  0  0
 11 14  1  0  0  0  0
 14 15  1  0  0  0  0
 14 16  1  0  0  0  0
 14 17  1  0  0  0  0
 17 18  1  0  0  0  0
 17 19  1  0  0  0  0
 17 20  1  0  0  0  0
M  END
> <VM2 Rank>
7

> <Conf_Id>
245

> <Probability>
6.43

> <Sum Probability>
61.22

> <Delta G>
0.446

> <G>
54.383

> <E>
31.794

> <-TS>
22.589

> <U+W>
15.698

> <U>
69.962

> <W>
-54.265

> <W(PB)>
-56.166

> <W(SA)>
1.901

> <Valence>
0.982

> <Coulomb>
69.058

> <VdW>
-0.077

> <VdW6>
-3.548

> <VdW12>
3.471

> <Bond>
0.105

> <Angle>
0.408

> <Pdih>
0.469

> <Idih>
0.000

> <Tether>
0.000

$$$$
VeraChem MOL file


 20 19  0  0  0  0  0  0  0  0999 V2000     
   19.9202   18.3276   19.2182 C   0  0  0  0  0  0  0  0  0  0  0  0
   19.1809   17.5281   19.3569 H   0  0  0  0  0  0  0  0  0  0  0  0
   19.4297   19.1594   18.6960 H   0  0  0  0  0  0  0  0  0  0  0  0
   20.7136   17.9421   18.5649 H   0  0  0  0  0  0  0  0  0  0  0  0
   20.5031   18.7868   20.5722 C   0  0  0  0  0  0  0  0  0  0  0  0
   21.2614   19.5633   20.3981 H   0  0  0  0  0  0  0  0  0  0  0  0
   21.0180   17.9401   21.0463 H   0  0  0  0  0  0  0  0  0  0  0  0
   19.4038   19.3332   21.5132 C   0  0  0  0  0  0  0  0  0  0  0  0
   18.8683   20.1492   21.0101 H   0  0  0  0  0  0  0  0  0  0  0  0
   18.6580   18.5529   21.7124 H   0  0  0  0  0  0  0  0  0  0  0  0
   19.9679   19.8726   22.8464 C   0  0  0  0  0  0  0  0  0  0  0  0
   19.1520   20.2798   23.4490 H   0  0  0  0  0  0  0  0  0  0  0  0
   20.6648   20.6870   22.6330 H   0  0  0  0  0  0  0  0  0  0  0  0
   20.7069   18.8541   23.7014 N   0  3  0  0  0  0  0  0  0  0  0  0
   21.1548   19.3330   24.4985 H   0  0  0  0  0  0  0  0  0  0  0  0
   21.4863   18.4409   23.1686 H   0  0  0  0  0  0  0  0  0  0  0  0
   19.7642   17.7698   24.2116 C   0  0  0  0  0  0  0  0  0  0  0  0
   19.3450   17.2259   23.3628 H   0  0  0  0  0  0  0  0  0  0  0  0
   20.3228   17.0805   24.8486 H   0  0  0  0  0  0  0  0  0  0  0  0
   18.9608   18.2339   24.7876 H   0  0  0  0  0  0  0  0  0  0  0  0
  1  2  1  0  0  0  0
  1  3  1  0  0  0  0
  1  4  1  0  0  0  0
  1  5  1  0  0  0  0
  5  6  1  0  0  0  0
  5  7  1  0  0  0  0
  5  8  1  0  0  0  0
  8  9  1  0  0  0  0
  8 10  1  0  0  0  0
  8 11  1  0  0  0  0
 11 12  1  0  0  0  0
 11 13  1  0  0  0  0
 11 14  1  0  0  0  0
 14 15  1  0  0  0  0
 14 16  1  0  0  0  0
 14 17  1  0  0  0  0
 17 18  1  0  0  0  0
 17 19  1  0  0  0  0
 17 20  1  0  0  0  0
M  END
> <VM2 Rank>
8

> <Conf_Id>
297

> <Probability>
5.28

> <Sum Probability>
66.51

> <Delta G>
0.563

> <G>
54.500

> <E>
31.687

> <-TS>
22.812

> <U+W>
15.591

> <U>
70.298

> <W>
-54.707

> <W(PB)>
-56.585

> <W(SA)>
1.878

> <Valence>
1.245

> <Coulomb>
68.933

> <VdW>
0.120

> <VdW6>
-4.430

> <VdW12>
4.550

> <Bond>
0.148

> <Angle>
0.587

> <Pdih>
0.509

> <Idih>
0.000

> <Tether>
0.000

$$$$
VeraChem MOL file


 20 19  0  0  0  0  0  0  0  0999 V2000     
   20.6592   19.0611   19.2492 C   0  0  0  0  0  0  0  0  0  0  0  0
   19.8536   19.5802   18.7138 H   0  0  0  0  0  0  0  0  0  0  0  0
   21.4572   19.7870   19.4526 H   0  0  0  0  0  0  0  0  0  0  0  0
   21.0666   18.2925   18.5796 H   0  0  0  0  0  0  0  0  0  0  0  0
   20.1392   18.4257   20.5568 C   0  0  0  0  0  0  0  0  0  0  0  0
   20.9614   17.8840   21.0438 H   0  0  0  0  0  0  0  0  0  0  0  0
   19.3655   17.6822   20.3183 H   0  0  0  0  0  0  0  0  0  0  0  0
   19.5610   19.4892   21.5198 C   0  0  0  0  0  0  0  0  0  0  0  0
   20.3373   20.2192   21.7829 H   0  0  0  0  0  0  0  0  0  0  0  0
   18.7707   20.0523   21.0061 H   0  0  0  0  0  0  0  0  0  0  0  0
   18.9619   18.8742   22.8041 C   0  0  0  0  0  0  0  0  0  0  0  0
   18.1526   18.1937   22.5274 H   0  0  0  0  0  0  0  0  0  0  0  0
   18.5351   19.6674   23.4230 H   0  0  0  0  0  0  0  0  0  0  0  0
   19.9384   18.0913   23.6691 N   0  3  0  0  0  0  0  0  0  0  0  0
   20.3686   17.3316   23.1216 H   0  0  0  0  0  0  0  0  0  0  0  0
   19.4231   17.6143   24.4256 H   0  0  0  0  0  0  0  0  0  0  0  0
   21.0063   19.0026   24.2640 C   0  0  0  0  0  0  0  0  0  0  0  0
   21.5883   19.4526   23.4573 H   0  0  0  0  0  0  0  0  0  0  0  0
   20.5235   19.7849   24.8535 H   0  0  0  0  0  0  0  0  0  0  0  0
   21.6643   18.4119   24.9051 H   0  0  0  0  0  0  0  0  0  0  0  0
  1  2  1  0  0  0  0
  1  3  1  0  0  0  0
  1  4  1  0  0  0  0
  1  5  1  0  0  0  0
  5  6  1  0  0  0  0
  5  7  1  0  0  0  0
  5  8  1  0  0  0  0
  8  9  1  0  0  0  0
  8 10  1  0  0  0  0
  8 11  1  0  0  0  0
 11 12  1  0  0  0  0
 11 13  1  0  0  0  0
 11 14  1  0  0  0  0
 14 15  1  0  0  0  0
 14 16  1  0  0  0  0
 14 17  1  0  0  0  0
 17 18  1  0  0  0  0
 17 19  1  0  0  0  0
 17 20  1  0  0  0  0
M  END
> <VM2 Rank>
9

> <Conf_Id>
119

> <Probability>
5.15

> <Sum Probability>
71.66

> <Delta G>
0.578

> <G>
54.515

> <E>
31.703

> <-TS>
22.812

> <U+W>
15.606

> <U>
70.298

> <W>
-54.692

> <W(PB)>
-56.576

> <W(SA)>
1.885

> <Valence>
1.245

> <Coulomb>
68.933

> <VdW>
0.120

> <VdW6>
-4.430

> <VdW12>
4.550

> <Bond>
0.148

> <Angle>
0.587

> <Pdih>
0.510

> <Idih>
0.000

> <Tether>
0.000

$$$$
VeraChem MOL file


 20 19  0  0  0  0  0  0  0  0999 V2000     
   19.7758   18.0537   19.5402 C   0  0  0  0  0  0  0  0  0  0  0  0
   18.7995   17.8306   19.9888 H   0  0  0  0  0  0  0  0  0  0  0  0
   19.6338   18.1170   18.4535 H   0  0  0  0  0  0  0  0  0  0  0  0
   20.4467   17.2085   19.7413 H   0  0  0  0  0  0  0  0  0  0  0  0
   20.3646   19.3742   20.0878 C   0  0  0  0  0  0  0  0  0  0  0  0
   19.6724   20.2020   19.8784 H   0  0  0  0  0  0  0  0  0  0  0  0
   21.2934   19.6042   19.5470 H   0  0  0  0  0  0  0  0  0  0  0  0
   20.6664   19.3176   21.6036 C   0  0  0  0  0  0  0  0  0  0  0  0
   21.3869   18.5136   21.8015 H   0  0  0  0  0  0  0  0  0  0  0  0
   21.1503   20.2554   21.9070 H   0  0  0  0  0  0  0  0  0  0  0  0
   19.3949   19.1074   22.4535 C   0  0  0  0  0  0  0  0  0  0  0  0
   18.9392   18.1448   22.2093 H   0  0  0  0  0  0  0  0  0  0  0  0
   18.6744   19.8936   22.2140 H   0  0  0  0  0  0  0  0  0  0  0  0
   19.6247   19.1462   23.9556 N   0  3  0  0  0  0  0  0  0  0  0  0
   18.7155   19.1636   24.4437 H   0  0  0  0  0  0  0  0  0  0  0  0
   20.0853   20.0291   24.2240 H   0  0  0  0  0  0  0  0  0  0  0  0
   20.4397   17.9449   24.4223 C   0  0  0  0  0  0  0  0  0  0  0  0
   20.5516   17.9886   25.5079 H   0  0  0  0  0  0  0  0  0  0  0  0
   19.9187   17.0266   24.1430 H   0  0  0  0  0  0  0  0  0  0  0  0
   21.4244   17.9697   23.9516 H   0  0  0  0  0  0  0  0  0  0  0  0
  1  2  1  0  0  0  0
  1  3  1  0  0  0  0
  1  4  1  0  0  0  0
  1  5  1  0  0  0  0
  5  6  1  0  0  0  0
  5  7  1  0  0  0  0
  5  8  1  0  0  0  0
  8  9  1  0  0  0  0
  8 10  1  0  0  0  0
  8 11  1  0  0  0  0
 11 12  1  0  0  0  0
 11 13  1  0  0  0  0
 11 14  1  0  0  0  0
 14 15  1  0  0  0  0
 14 16  1  0  0  0  0
 14 17  1  0  0  0  0
 17 18  1  0  0  0  0
 17 19  1  0  0  0  0
 17 20  1  0  0  0  0
M  END
> <VM2 Rank>
10

> <Conf_Id>
106

> <Probability>
4.73

> <Sum Probability>
76.39

> <Delta G>
0.628

> <G>
54.565

> <E>
31.803

> <-TS>
22.762

> <U+W>
15.707

> <U>
70.163

> <W>
-54.456

> <W(PB)>
-56.368

> <W(SA)>
1.913

> <Valence>
1.420

> <Coulomb>
68.566

> <VdW>
0.177

> <VdW6>
-4.267

> <VdW12>
4.445

> <Bond>
0.146

> <Angle>
0.581

> <Pdih>
0.693

> <Idih>
0.000

> <Tether>
0.000

$$$$
VeraChem MOL file


 20 19  0  0  0  0  0  0  0  0999 V2000     
   20.9210   19.1869   19.5882 C   0  0  0  0  0  0  0  0  0  0  0  0
   21.7505   18.4986   19.7961 H   0  0  0  0  0  0  0  0  0  0  0  0
   20.9052   19.3750   18.5069 H   0  0  0  0  0  0  0  0  0  0  0  0
   21.1343   20.1409   20.0867 H   0  0  0  0  0  0  0  0  0  0  0  0
   19.5729   18.5907   20.0547 C   0  0  0  0  0  0  0  0  0  0  0  0
   19.3571   17.6881   19.4659 H   0  0  0  0  0  0  0  0  0  0  0  0
   18.7614   19.3004   19.8402 H   0  0  0  0  0  0  0  0  0  0  0  0
   19.5623   18.2251   21.5573 C   0  0  0  0  0  0  0  0  0  0  0  0
   18.6081   17.7395   21.8004 H   0  0  0  0  0  0  0  0  0  0  0  0
   20.3504   17.4880   21.7581 H   0  0  0  0  0  0  0  0  0  0  0  0
   19.7485   19.4575   22.4684 C   0  0  0  0  0  0  0  0  0  0  0  0
   18.9798   20.1961   22.2269 H   0  0  0  0  0  0  0  0  0  0  0  0
   20.7247   19.9123   22.2841 H   0  0  0  0  0  0  0  0  0  0  0  0
   19.6442   19.1654   23.9564 N   0  3  0  0  0  0  0  0  0  0  0  0
   18.7465   18.7038   24.1680 H   0  0  0  0  0  0  0  0  0  0  0  0
   19.6147   20.0535   24.4814 H   0  0  0  0  0  0  0  0  0  0  0  0
   20.8171   18.3183   24.4380 C   0  0  0  0  0  0  0  0  0  0  0  0
   21.7512   18.8403   24.2195 H   0  0  0  0  0  0  0  0  0  0  0  0
   20.7266   18.1616   25.5151 H   0  0  0  0  0  0  0  0  0  0  0  0
   20.8029   17.3544   23.9255 H   0  0  0  0  0  0  0  0  0  0  0  0
  1  2  1  0  0  0  0
  1  3  1  0  0  0  0
  1  4  1  0  0  0  0
  1  5  1  0  0  0  0
  5  6  1  0  0  0  0
  5  7  1  0  0  0  0
  5  8  1  0  0  0  0
  8  9  1  0  0  0  0
  8 10  1  0  0  0  0
  8 11  1  0  0  0  0
 11 12  1  0  0  0  0
 11 13  1  0  0  0  0
 11 14  1  0  0  0  0
 14 15  1  0  0  0  0
 14 16  1  0  0  0  0
 14 17  1  0  0  0  0
 17 18  1  0  0  0  0
 17 19  1  0  0  0  0
 17 20  1  0  0  0  0
M  END
> <VM2 Rank>
11

> <Conf_Id>
160

> <Probability>
4.69

> <Sum Probability>
81.08

> <Delta G>
0.634

> <G>
54.571

> <E>
31.809

> <-TS>
22.762

> <U+W>
15.713

> <U>
70.163

> <W>
-54.450

> <W(PB)>
-56.323

> <W(SA)>
1.873

> <Valence>
1.420

> <Coulomb>
68.566

> <VdW>
0.177

> <VdW6>
-4.268

> <VdW12>
4.445

> <Bond>
0.146

> <Angle>
0.581

> <Pdih>
0.693

> <Idih>
0.000

> <Tether>
0.000

$$$$
VeraChem MOL file


 20 19  0  0  0  0  0  0  0  0999 V2000     
   19.9878   19.5063   19.3467 C   0  0  0  0  0  0  0  0  0  0  0  0
   20.4745   20.3793   19.7994 H   0  0  0  0  0  0  0  0  0  0  0  0
   20.3577   19.4191   18.3169 H   0  0  0  0  0  0  0  0  0  0  0  0
   18.9086   19.7014   19.2989 H   0  0  0  0  0  0  0  0  0  0  0  0
   20.2853   18.2134   20.1405 C   0  0  0  0  0  0  0  0  0  0  0  0
   21.3709   18.0463   20.1808 H   0  0  0  0  0  0  0  0  0  0  0  0
   19.8612   17.3557   19.5996 H   0  0  0  0  0  0  0  0  0  0  0  0
   19.7081   18.2368   21.5753 C   0  0  0  0  0  0  0  0  0  0  0  0
   18.6195   18.3730   21.5318 H   0  0  0  0  0  0  0  0  0  0  0  0
   19.8838   17.2591   22.0420 H   0  0  0  0  0  0  0  0  0  0  0  0
   20.3335   19.3452   22.4496 C   0  0  0  0  0  0  0  0  0  0  0  0
   20.1581   20.3139   21.9756 H   0  0  0  0  0  0  0  0  0  0  0  0
   21.4135   19.1949   22.5228 H   0  0  0  0  0  0  0  0  0  0  0  0
   19.7752   19.4290   23.8610 N   0  3  0  0  0  0  0  0  0  0  0  0
   18.7494   19.5329   23.8339 H   0  0  0  0  0  0  0  0  0  0  0  0
   20.1159   20.2903   24.3162 H   0  0  0  0  0  0  0  0  0  0  0  0
   20.1762   18.2134   24.6899 C   0  0  0  0  0  0  0  0  0  0  0  0
   21.2655   18.1402   24.7169 H   0  0  0  0  0  0  0  0  0  0  0  0
   19.7902   18.3298   25.7050 H   0  0  0  0  0  0  0  0  0  0  0  0
   19.7554   17.3122   24.2398 H   0  0  0  0  0  0  0  0  0  0  0  0
  1  2  1  0  0  0  0
  1  3  1  0  0  0  0
  1  4  1  0  0  0  0
  1  5  1  0  0  0  0
  5  6  1  0  0  0  0
  5  7  1  0  0  0  0
  5  8  1  0  0  0  0
  8  9  1  0  0  0  0
  8 10  1  0  0  0  0
  8 11  1  0  0  0  0
 11 12  1  0  0  0  0
 11 13  1  0  0  0  0
 11 14  1  0  0  0  0
 14 15  1  0  0  0  0
 14 16  1  0  0  0  0
 14 17  1  0  0  0  0
 17 18  1  0  0  0  0
 17 19  1  0  0  0  0
 17 20  1  0  0  0  0
M  END
> <VM2 Rank>
12

> <Conf_Id>
314

> <Probability>
4.56

> <Sum Probability>
85.64

> <Delta G>
0.650

> <G>
54.587

> <E>
31.822

> <-TS>
22.766

> <U+W>
15.725

> <U>
70.231

> <W>
-54.505

> <W(PB)>
-56.395

> <W(SA)>
1.890

> <Valence>
1.441

> <Coulomb>
68.568

> <VdW>
0.222

> <VdW6>
-4.234

> <VdW12>
4.455

> <Bond>
0.148

> <Angle>
0.601

> <Pdih>
0.692

> <Idih>
0.000

> <Tether>
0.000

$$$$
VeraChem MOL file


 20 19  0  0  0  0  0  0  0  0999 V2000     
   19.4757   18.9990   19.3252 C   0  0  0  0  0  0  0  0  0  0  0  0
   19.2921   20.0812   19.3149 H   0  0  0  0  0  0  0  0  0  0  0  0
   19.6032   18.6715   18.2852 H   0  0  0  0  0  0  0  0  0  0  0  0
   18.5802   18.5028   19.7200 H   0  0  0  0  0  0  0  0  0  0  0  0
   20.7314   18.6553   20.1592 C   0  0  0  0  0  0  0  0  0  0  0  0
   21.6147   19.0927   19.6731 H   0  0  0  0  0  0  0  0  0  0  0  0
   20.8873   17.5672   20.1607 H   0  0  0  0  0  0  0  0  0  0  0  0
   20.6523   19.1722   21.6149 C   0  0  0  0  0  0  0  0  0  0  0  0
   21.6078   18.9669   22.1142 H   0  0  0  0  0  0  0  0  0  0  0  0
   20.5274   20.2630   21.6116 H   0  0  0  0  0  0  0  0  0  0  0  0
   19.5026   18.5222   22.4148 C   0  0  0  0  0  0  0  0  0  0  0  0
   19.6403   17.4386   22.4484 H   0  0  0  0  0  0  0  0  0  0  0  0
   18.5563   18.7275   21.9086 H   0  0  0  0  0  0  0  0  0  0  0  0
   19.3641   19.0218   23.8438 N   0  3  0  0  0  0  0  0  0  0  0  0
   18.4813   18.6714   24.2477 H   0  0  0  0  0  0  0  0  0  0  0  0
   19.2705   20.0489   23.8558 H   0  0  0  0  0  0  0  0  0  0  0  0
   20.5399   18.5736   24.7052 C   0  0  0  0  0  0  0  0  0  0  0  0
   21.4630   19.0033   24.3113 H   0  0  0  0  0  0  0  0  0  0  0  0
   20.3842   18.9179   25.7299 H   0  0  0  0  0  0  0  0  0  0  0  0
   20.6023   17.4834   24.6891 H   0  0  0  0  0  0  0  0  0  0  0  0
  1  2  1  0  0  0  0
  1  3  1  0  0  0  0
  1  4  1  0  0  0  0
  1  5  1  0  0  0  0
  5  6  1  0  0  0  0
  5  7  1  0  0  0  0
  5  8  1  0  0  0  0
  8  9  1  0  0  0  0
  8 10  1  0  0  0  0
  8 11  1  0  0  0  0
 11 12  1  0  0  0  0
 11 13  1  0  0  0  0
 11 14  1  0  0  0  0
 14 15  1  0  0  0  0
 14 16  1  0  0  0  0
 14 17  1  0  0  0  0
 17 18  1  0  0  0  0
 17 19  1  0  0  0  0
 17 20  1  0  0  0  0
M  END
> <VM2 Rank>
13

> <Conf_Id>
90

> <Probability>
4.20

> <Sum Probability>
89.84

> <Delta G>
0.700

> <G>
54.637

> <E>
31.871

> <-TS>
22.766

> <U+W>
15.775

> <U>
70.230

> <W>
-54.456

> <W(PB)>
-56.330

> <W(SA)>
1.874

> <Valence>
1.441

> <Coulomb>
68.568

> <VdW>
0.221

> <VdW6>
-4.233

> <VdW12>
4.455

> <Bond>
0.148

> <Angle>
0.601

> <Pdih>
0.692

> <Idih>
0.000

> <Tether>
0.000

$$$$
VeraChem MOL file


 20 19  0  0  0  0  0  0  0  0999 V2000     
   20.9014   18.3875   19.8180 C   0  0  0  0  0  0  0  0  0  0  0  0
   20.2878   17.6306   19.3123 H   0  0  0  0  0  0  0  0  0  0  0  0
   21.6443   18.7519   19.0968 H   0  0  0  0  0  0  0  0  0  0  0  0
   21.4462   17.8969   20.6344 H   0  0  0  0  0  0  0  0  0  0  0  0
   20.0296   19.5549   20.3350 C   0  0  0  0  0  0  0  0  0  0  0  0
   19.5793   20.0718   19.4760 H   0  0  0  0  0  0  0  0  0  0  0  0
   20.6654   20.2978   20.8354 H   0  0  0  0  0  0  0  0  0  0  0  0
   18.8984   19.0926   21.2873 C   0  0  0  0  0  0  0  0  0  0  0  0
   18.3024   19.9621   21.5948 H   0  0  0  0  0  0  0  0  0  0  0  0
   18.2138   18.4312   20.7400 H   0  0  0  0  0  0  0  0  0  0  0  0
   19.3998   18.3511   22.5442 C   0  0  0  0  0  0  0  0  0  0  0  0
   19.9553   17.4582   22.2476 H   0  0  0  0  0  0  0  0  0  0  0  0
   18.5427   18.0333   23.1433 H   0  0  0  0  0  0  0  0  0  0  0  0
   20.2989   19.1870   23.4351 N   0  3  0  0  0  0  0  0  0  0  0  0
   19.8065   20.0423   23.7348 H   0  0  0  0  0  0  0  0  0  0  0  0
   21.1185   19.5131   22.9019 H   0  0  0  0  0  0  0  0  0  0  0  0
   20.7379   18.3709   24.6434 C   0  0  0  0  0  0  0  0  0  0  0  0
   21.2846   17.4890   24.3027 H   0  0  0  0  0  0  0  0  0  0  0  0
   21.3849   18.9841   25.2746 H   0  0  0  0  0  0  0  0  0  0  0  0
   19.8560   18.0633   25.2093 H   0  0  0  0  0  0  0  0  0  0  0  0
  1  2  1  0  0  0  0
  1  3  1  0  0  0  0
  1  4  1  0  0  0  0
  1  5  1  0  0  0  0
  5  6  1  0  0  0  0
  5  7  1  0  0  0  0
  5  8  1  0  0  0  0
  8  9  1  0  0  0  0
  8 10  1  0  0  0  0
  8 11  1  0  0  0  0
 11 12  1  0  0  0  0
 11 13  1  0  0  0  0
 11 14  1  0  0  0  0
 14 15  1  0  0  0  0
 14 16  1  0  0  0  0
 14 17  1  0  0  0  0
 17 18  1  0  0  0  0
 17 19  1  0  0  0  0
 17 20  1  0  0  0  0
M  END
> <VM2 Rank>
14

> <Conf_Id>
50

> <Probability>
2.28

> <Sum Probability>
92.12

> <Delta G>
1.062

> <G>
54.999

> <E>
32.227

> <-TS>
22.773

> <U+W>
16.130

> <U>
70.374

> <W>
-54.244

> <W(PB)>
-56.130

> <W(SA)>
1.887

> <Valence>
1.257

> <Coulomb>
69.240

> <VdW>
-0.123

> <VdW6>
-4.336

> <VdW12>
4.213

> <Bond>
0.128

> <Angle>
0.603

> <Pdih>
0.526

> <Idih>
0.000

> <Tether>
0.000

$$$$
VeraChem MOL file


 20 19  0  0  0  0  0  0  0  0999 V2000     
   20.5654   18.0547   19.8040 C   0  0  0  0  0  0  0  0  0  0  0  0
   21.0159   17.4709   20.6165 H   0  0  0  0  0  0  0  0  0  0  0  0
   20.2251   17.3466   19.0374 H   0  0  0  0  0  0  0  0  0  0  0  0
   21.3486   18.6806   19.3569 H   0  0  0  0  0  0  0  0  0  0  0  0
   19.3851   18.9168   20.3080 C   0  0  0  0  0  0  0  0  0  0  0  0
   18.6159   18.2687   20.7495 H   0  0  0  0  0  0  0  0  0  0  0  0
   18.9091   19.4082   19.4478 H   0  0  0  0  0  0  0  0  0  0  0  0
   19.8169   20.0020   21.3258 C   0  0  0  0  0  0  0  0  0  0  0  0
   20.5070   20.7018   20.8361 H   0  0  0  0  0  0  0  0  0  0  0  0
   18.9406   20.5941   21.6215 H   0  0  0  0  0  0  0  0  0  0  0  0
   20.5000   19.4405   22.5903 C   0  0  0  0  0  0  0  0  0  0  0  0
   20.7999   20.2683   23.2378 H   0  0  0  0  0  0  0  0  0  0  0  0
   21.3996   18.8883   22.3081 H   0  0  0  0  0  0  0  0  0  0  0  0
   19.6192   18.5140   23.4066 N   0  3  0  0  0  0  0  0  0  0  0  0
   19.3085   17.7209   22.8260 H   0  0  0  0  0  0  0  0  0  0  0  0
   18.7564   19.0025   23.6907 H   0  0  0  0  0  0  0  0  0  0  0  0
   20.3794   18.0160   24.6283 C   0  0  0  0  0  0  0  0  0  0  0  0
   19.7344   17.3498   25.2054 H   0  0  0  0  0  0  0  0  0  0  0  0
   21.2701   17.4747   24.3020 H   0  0  0  0  0  0  0  0  0  0  0  0
   20.6708   18.8701   25.2434 H   0  0  0  0  0  0  0  0  0  0  0  0
  1  2  1  0  0  0  0
  1  3  1  0  0  0  0
  1  4  1  0  0  0  0
  1  5  1  0  0  0  0
  5  6  1  0  0  0  0
  5  7  1  0  0  0  0
  5  8  1  0  0  0  0
  8  9  1  0  0  0  0
  8 10  1  0  0  0  0
  8 11  1  0  0  0  0
 11 12  1  0  0  0  0
 11 13  1  0  0  0  0
 11 14  1  0  0  0  0
 14 15  1  0  0  0  0
 14 16  1  0  0  0  0
 14 17  1  0  0  0  0
 17 18  1  0  0  0  0
 17 19  1  0  0  0  0
 17 20  1  0  0  0  0
M  END
> <VM2 Rank>
15

> <Conf_Id>
140

> <Probability>
1.92

> <Sum Probability>
94.05

> <Delta G>
1.166

> <G>
55.103

> <E>
32.330

> <-TS>
22.773

> <U+W>
16.233

> <U>
70.374

> <W>
-54.140

> <W(PB)>
-56.047

> <W(SA)>
1.907

> <Valence>
1.257

> <Coulomb>
69.240

> <VdW>
-0.123

> <VdW6>
-4.336

> <VdW12>
4.213

> <Bond>
0.128

> <Angle>
0.603

> <Pdih>
0.526

> <Idih>
0.000

> <Tether>
0.000

$$$$
VeraChem MOL file


 20 19  0  0  0  0  0  0  0  0999 V2000     
   19.2819   18.9366   19.6798 C   0  0  0  0  0  0  0  0  0  0  0  0
   19.7311   19.7796   19.1390 H   0  0  0  0  0  0  0  0  0  0  0  0
   18.8406   18.2598   18.9367 H   0  0  0  0  0  0  0  0  0  0  0  0
   18.4645   19.3248   20.3003 H   0  0  0  0  0  0  0  0  0  0  0  0
   20.3396   18.1943   20.5287 C   0  0  0  0  0  0  0  0  0  0  0  0
   21.0875   17.7490   19.8577 H   0  0  0  0  0  0  0  0  0  0  0  0
   19.8684   17.3541   21.0566 H   0  0  0  0  0  0  0  0  0  0  0  0
   21.0637   19.1178   21.5397 C   0  0  0  0  0  0  0  0  0  0  0  0
   21.8260   18.5407   22.0788 H   0  0  0  0  0  0  0  0  0  0  0  0
   21.6082   19.8972   20.9905 H   0  0  0  0  0  0  0  0  0  0  0  0
   20.1196   19.8007   22.5555 C   0  0  0  0  0  0  0  0  0  0  0  0
   19.4243   20.4479   22.0153 H   0  0  0  0  0  0  0  0  0  0  0  0
   20.7040   20.4297   23.2318 H   0  0  0  0  0  0  0  0  0  0  0  0
   19.2900   18.8524   23.4075 N   0  3  0  0  0  0  0  0  0  0  0  0
   18.7328   18.2312   22.8029 H   0  0  0  0  0  0  0  0  0  0  0  0
   18.5965   19.3912   23.9495 H   0  0  0  0  0  0  0  0  0  0  0  0
   20.1712   18.0422   24.3518 C   0  0  0  0  0  0  0  0  0  0  0  0
   20.7347   18.7246   24.9917 H   0  0  0  0  0  0  0  0  0  0  0  0
   19.5390   17.3983   24.9672 H   0  0  0  0  0  0  0  0  0  0  0  0
   20.8598   17.4289   23.7672 H   0  0  0  0  0  0  0  0  0  0  0  0
  1  2  1  0  0  0  0
  1  3  1  0  0  0  0
  1  4  1  0  0  0  0
  1  5  1  0  0  0  0
  5  6  1  0  0  0  0
  5  7  1  0  0  0  0
  5  8  1  0  0  0  0
  8  9  1  0  0  0  0
  8 10  1  0  0  0  0
  8 11  1  0  0  0  0
 11 12  1  0  0  0  0
 11 13  1  0  0  0  0
 11 14  1  0  0  0  0
 14 15  1  0  0  0  0
 14 16  1  0  0  0  0
 14 17  1  0  0  0  0
 17 18  1  0  0  0  0
 17 19  1  0  0  0  0
 17 20  1  0  0  0  0
M  END
> <VM2 Rank>
16

> <Conf_Id>
91

> <Probability>
1.57

> <Sum Probability>
95.61

> <Delta G>
1.287

> <G>
55.224

> <E>
32.216

> <-TS>
23.008

> <U+W>
16.120

> <U>
70.776

> <W>
-54.656

> <W(PB)>
-56.505

> <W(SA)>
1.849

> <Valence>
1.529

> <Coulomb>
69.166

> <VdW>
0.082

> <VdW6>
-5.166

> <VdW12>
5.248

> <Bond>
0.171

> <Angle>
0.753

> <Pdih>
0.605

> <Idih>
0.000

> <Tether>
0.000

$$$$
VeraChem MOL file


 20 19  0  0  0  0  0  0  0  0999 V2000     
   20.0369   19.6845   19.7114 C   0  0  0  0  0  0  0  0  0  0  0  0
   19.2136   19.2670   19.1173 H   0  0  0  0  0  0  0  0  0  0  0  0
   19.6299   20.4792   20.3491 H   0  0  0  0  0  0  0  0  0  0  0  0
   20.7482   20.1494   19.0166 H   0  0  0  0  0  0  0  0  0  0  0  0
   20.7335   18.5846   20.5452 C   0  0  0  0  0  0  0  0  0  0  0  0
   21.5547   19.0246   21.1272 H   0  0  0  0  0  0  0  0  0  0  0  0
   21.2003   17.8608   19.8624 H   0  0  0  0  0  0  0  0  0  0  0  0
   19.7620   17.8283   21.4852 C   0  0  0  0  0  0  0  0  0  0  0  0
   19.0019   17.3154   20.8814 H   0  0  0  0  0  0  0  0  0  0  0  0
   20.3092   17.0383   22.0153 H   0  0  0  0  0  0  0  0  0  0  0  0
   19.0449   18.7361   22.5105 C   0  0  0  0  0  0  0  0  0  0  0  0
   18.3829   18.1305   23.1345 H   0  0  0  0  0  0  0  0  0  0  0  0
   18.4271   19.4601   21.9735 H   0  0  0  0  0  0  0  0  0  0  0  0
   19.9634   19.5194   23.4357 N   0  3  0  0  0  0  0  0  0  0  0  0
   19.4082   20.1952   23.9835 H   0  0  0  0  0  0  0  0  0  0  0  0
   20.6145   20.0950   22.8817 H   0  0  0  0  0  0  0  0  0  0  0  0
   20.7253   18.5911   24.3751 C   0  0  0  0  0  0  0  0  0  0  0  0
   21.3568   17.9212   23.7881 H   0  0  0  0  0  0  0  0  0  0  0  0
   21.3480   19.1903   25.0431 H   0  0  0  0  0  0  0  0  0  0  0  0
   20.0116   18.0085   24.9614 H   0  0  0  0  0  0  0  0  0  0  0  0
  1  2  1  0  0  0  0
  1  3  1  0  0  0  0
  1  4  1  0  0  0  0
  1  5  1  0  0  0  0
  5  6  1  0  0  0  0
  5  7  1  0  0  0  0
  5  8  1  0  0  0  0
  8  9  1  0  0  0  0
  8 10  1  0  0  0  0
  8 11  1  0  0  0  0
 11 12  1  0  0  0  0
 11 13  1  0  0  0  0
 11 14  1  0  0  0  0
 14 15  1  0  0  0  0
 14 16  1  0  0  0  0
 14 17  1  0  0  0  0
 17 18  1  0  0  0  0
 17 19  1  0  0  0  0
 17 20  1  0  0  0  0
M  END
> <VM2 Rank>
17

> <Conf_Id>
183

> <Probability>
1.56

> <Sum Probability>
97.18

> <Delta G>
1.289

> <G>
55.226

> <E>
32.218

> <-TS>
23.008

> <U+W>
16.122

> <U>
70.776

> <W>
-54.655

> <W(PB)>
-56.491

> <W(SA)>
1.836

> <Valence>
1.529

> <Coulomb>
69.166

> <VdW>
0.082

> <VdW6>
-5.166

> <VdW12>
5.248

> <Bond>
0.171

> <Angle>
0.752

> <Pdih>
0.605

> <Idih>
0.000

> <Tether>
0.000

$$$$
VeraChem MOL file


 20 19  0  0  0  0  0  0  0  0999 V2000     
   19.7480   18.3613   19.2372 C   0  0  0  0  0  0  0  0  0  0  0  0
   19.9464   19.2714   18.6562 H   0  0  0  0  0  0  0  0  0  0  0  0
   20.1564   17.5099   18.6773 H   0  0  0  0  0  0  0  0  0  0  0  0
   18.6602   18.2290   19.3039 H   0  0  0  0  0  0  0  0  0  0  0  0
   20.3845   18.4468   20.6414 C   0  0  0  0  0  0  0  0  0  0  0  0
   21.4744   18.5467   20.5408 H   0  0  0  0  0  0  0  0  0  0  0  0
   20.2045   17.5040   21.1715 H   0  0  0  0  0  0  0  0  0  0  0  0
   19.8269   19.6428   21.4499 C   0  0  0  0  0  0  0  0  0  0  0  0
   20.0025   20.5607   20.8734 H   0  0  0  0  0  0  0  0  0  0  0  0
   18.7386   19.5568   21.5669 H   0  0  0  0  0  0  0  0  0  0  0  0
   20.4956   19.8176   22.8325 C   0  0  0  0  0  0  0  0  0  0  0  0
   20.4754   20.8808   23.0856 H   0  0  0  0  0  0  0  0  0  0  0  0
   21.5430   19.5094   22.7862 H   0  0  0  0  0  0  0  0  0  0  0  0
   19.8280   19.0943   23.9949 N   0  3  0  0  0  0  0  0  0  0  0  0
   18.8322   19.3563   24.0534 H   0  0  0  0  0  0  0  0  0  0  0  0
   20.2374   19.4306   24.8805 H   0  0  0  0  0  0  0  0  0  0  0  0
   19.9831   17.5812   23.9072 C   0  0  0  0  0  0  0  0  0  0  0  0
   21.0415   17.3320   23.8061 H   0  0  0  0  0  0  0  0  0  0  0  0
   19.5835   17.1287   24.8174 H   0  0  0  0  0  0  0  0  0  0  0  0
   19.4266   17.2108   23.0448 H   0  0  0  0  0  0  0  0  0  0  0  0
  1  2  1  0  0  0  0
  1  3  1  0  0  0  0
  1  4  1  0  0  0  0
  1  5  1  0  0  0  0
  5  6  1  0  0  0  0
  5  7  1  0  0  0  0
  5  8  1  0  0  0  0
  8  9  1  0  0  0  0
  8 10  1  0  0  0  0
  8 11  1  0  0  0  0
 11 12  1  0  0  0  0
 11 13  1  0  0  0  0
 11 14  1  0  0  0  0
 14 15  1  0  0  0  0
 14 16  1  0  0  0  0
 14 17  1  0  0  0  0
 17 18  1  0  0  0  0
 17 19  1  0  0  0  0
 17 20  1  0  0  0  0
M  END
> <VM2 Rank>
18

> <Conf_Id>
156

> <Probability>
0.66

> <Sum Probability>
97.83

> <Delta G>
1.805

> <G>
55.742

> <E>
33.200

> <-TS>
22.543

> <U+W>
17.103

> <U>
71.852

> <W>
-54.749

> <W(PB)>
-56.607

> <W(SA)>
1.858

> <Valence>
3.010

> <Coulomb>
68.712

> <VdW>
0.131

> <VdW6>
-4.513

> <VdW12>
4.644

> <Bond>
0.159

> <Angle>
1.000

> <Pdih>
1.851

> <Idih>
0.000

> <Tether>
0.000

$$$$
VeraChem MOL file


 20 19  0  0  0  0  0  0  0  0999 V2000     
   20.6265   19.2314   19.2740 C   0  0  0  0  0  0  0  0  0  0  0  0
   20.7654   20.3139   19.3922 H   0  0  0  0  0  0  0  0  0  0  0  0
   21.4971   18.8378   18.7335 H   0  0  0  0  0  0  0  0  0  0  0  0
   19.7400   19.0672   18.6476 H   0  0  0  0  0  0  0  0  0  0  0  0
   20.4761   18.5375   20.6452 C   0  0  0  0  0  0  0  0  0  0  0  0
   21.3972   18.6851   21.2215 H   0  0  0  0  0  0  0  0  0  0  0  0
   20.3709   17.4539   20.4944 H   0  0  0  0  0  0  0  0  0  0  0  0
   19.2519   19.0733   21.4259 C   0  0  0  0  0  0  0  0  0  0  0  0
   19.3425   20.1548   21.5923 H   0  0  0  0  0  0  0  0  0  0  0  0
   18.3577   18.9318   20.8045 H   0  0  0  0  0  0  0  0  0  0  0  0
   19.0130   18.3491   22.7703 C   0  0  0  0  0  0  0  0  0  0  0  0
   19.3138   17.3013   22.6927 H   0  0  0  0  0  0  0  0  0  0  0  0
   17.9403   18.3698   22.9793 H   0  0  0  0  0  0  0  0  0  0  0  0
   19.6923   18.9598   23.9893 N   0  3  0  0  0  0  0  0  0  0  0  0
   19.3154   18.5169   24.8419 H   0  0  0  0  0  0  0  0  0  0  0  0
   19.4365   19.9548   24.0790 H   0  0  0  0  0  0  0  0  0  0  0  0
   21.2064   18.7930   23.9583 C   0  0  0  0  0  0  0  0  0  0  0  0
   21.6175   19.3814   23.1366 H   0  0  0  0  0  0  0  0  0  0  0  0
   21.6234   19.1492   24.9028 H   0  0  0  0  0  0  0  0  0  0  0  0
   21.4507   17.7372   23.8228 H   0  0  0  0  0  0  0  0  0  0  0  0
  1  2  1  0  0  0  0
  1  3  1  0  0  0  0
  1  4  1  0  0  0  0
  1  5  1  0  0  0  0
  5  6  1  0  0  0  0
  5  7  1  0  0  0  0
  5  8  1  0  0  0  0
  8  9  1  0  0  0  0
  8 10  1  0  0  0  0
  8 11  1  0  0  0  0
 11 12  1  0  0  0  0
 11 13  1  0  0  0  0
 11 14  1  0  0  0  0
 14 15  1  0  0  0  0
 14 16  1  0  0  0  0
 14 17  1  0  0  0  0
 17 18  1  0  0  0  0
 17 19  1  0  0  0  0
 17 20  1  0  0  0  0
M  END
> <VM2 Rank>
19

> <Conf_Id>
274

> <Probability>
0.59

> <Sum Probability>
98.42

> <Delta G>
1.868

> <G>
55.805

> <E>
33.261

> <-TS>
22.544

> <U+W>
17.165

> <U>
71.852

> <W>
-54.688

> <W(PB)>
-56.549

> <W(SA)>
1.861

> <Valence>
3.010

> <Coulomb>
68.712

> <VdW>
0.131

> <VdW6>
-4.514

> <VdW12>
4.644

> <Bond>
0.159

> <Angle>
1.000

> <Pdih>
1.851

> <Idih>
0.000

> <Tether>
0.000

$$$$
VeraChem MOL file


 20 19  0  0  0  0  0  0  0  0999 V2000     
   20.5998   19.0676   19.2526 C   0  0  0  0  0  0  0  0  0  0  0  0
   19.8977   18.4490   18.6786 H   0  0  0  0  0  0  0  0  0  0  0  0
   20.3464   20.1217   19.0798 H   0  0  0  0  0  0  0  0  0  0  0  0
   21.6064   18.8936   18.8508 H   0  0  0  0  0  0  0  0  0  0  0  0
   20.5456   18.7223   20.7567 C   0  0  0  0  0  0  0  0  0  0  0  0
   21.2882   19.3328   21.2871 H   0  0  0  0  0  0  0  0  0  0  0  0
   20.8305   17.6706   20.9005 H   0  0  0  0  0  0  0  0  0  0  0  0
   19.1393   18.9695   21.3507 C   0  0  0  0  0  0  0  0  0  0  0  0
   18.8921   20.0374   21.2880 H   0  0  0  0  0  0  0  0  0  0  0  0
   18.3943   18.4447   20.7381 H   0  0  0  0  0  0  0  0  0  0  0  0
   18.9768   18.4899   22.8110 C   0  0  0  0  0  0  0  0  0  0  0  0
   19.1777   17.4182   22.8837 H   0  0  0  0  0  0  0  0  0  0  0  0
   17.9366   18.6523   23.1050 H   0  0  0  0  0  0  0  0  0  0  0  0
   19.8386   19.2073   23.8386 N   0  3  0  0  0  0  0  0  0  0  0  0
   19.3298   19.2555   24.7352 H   0  0  0  0  0  0  0  0  0  0  0  0
   19.9823   20.1906   23.5642 H   0  0  0  0  0  0  0  0  0  0  0  0
   21.1660   18.4874   24.0534 C   0  0  0  0  0  0  0  0  0  0  0  0
   21.7424   19.0205   24.8127 H   0  0  0  0  0  0  0  0  0  0  0  0
   20.9693   17.4679   24.3919 H   0  0  0  0  0  0  0  0  0  0  0  0
   21.7280   18.4617   23.1191 H   0  0  0  0  0  0  0  0  0  0  0  0
  1  2  1  0  0  0  0
  1  3  1  0  0  0  0
  1  4  1  0  0  0  0
  1  5  1  0  0  0  0
  5  6  1  0  0  0  0
  5  7  1  0  0  0  0
  5  8  1  0  0  0  0
  8  9  1  0  0  0  0
  8 10  1  0  0  0  0
  8 11  1  0  0  0  0
 11 12  1  0  0  0  0
 11 13  1  0  0  0  0
 11 14  1  0  0  0  0
 14 15  1  0  0  0  0
 14 16  1  0  0  0  0
 14 17  1  0  0  0  0
 17 18  1  0  0  0  0
 17 19  1  0  0  0  0
 17 20  1  0  0  0  0
M  END
> <VM2 Rank>
20

> <Conf_Id>
103

> <Probability>
0.47

> <Sum Probability>
98.90

> <Delta G>
1.999

> <G>
55.936

> <E>
33.104

> <-TS>
22.833

> <U+W>
17.007

> <U>
71.726

> <W>
-54.719

> <W(PB)>
-56.583

> <W(SA)>
1.864

> <Valence>
2.885

> <Coulomb>
68.822

> <VdW>
0.019

> <VdW6>
-4.600

> <VdW12>
4.619

> <Bond>
0.152

> <Angle>
0.862

> <Pdih>
1.871

> <Idih>
0.000

> <Tether>
0.000

$$$$
VeraChem MOL file


 20 19  0  0  0  0  0  0  0  0999 V2000     
   19.9127   18.3871   19.2238 C   0  0  0  0  0  0  0  0  0  0  0  0
   20.0948   17.3965   18.7874 H   0  0  0  0  0  0  0  0  0  0  0  0
   18.8691   18.6585   19.0178 H   0  0  0  0  0  0  0  0  0  0  0  0
   20.5611   19.1061   18.7065 H   0  0  0  0  0  0  0  0  0  0  0  0
   20.1946   18.3747   20.7420 C   0  0  0  0  0  0  0  0  0  0  0  0
   21.2368   18.0729   20.9175 H   0  0  0  0  0  0  0  0  0  0  0  0
   19.5557   17.6169   21.2145 H   0  0  0  0  0  0  0  0  0  0  0  0
   19.9348   19.7574   21.3840 C   0  0  0  0  0  0  0  0  0  0  0  0
   20.4915   20.5218   20.8260 H   0  0  0  0  0  0  0  0  0  0  0  0
   18.8727   20.0182   21.2871 H   0  0  0  0  0  0  0  0  0  0  0  0
   20.3535   19.8535   22.8687 C   0  0  0  0  0  0  0  0  0  0  0  0
   20.1878   20.8821   23.1993 H   0  0  0  0  0  0  0  0  0  0  0  0
   21.4194   19.6387   22.9777 H   0  0  0  0  0  0  0  0  0  0  0  0
   19.5858   18.9570   23.8280 N   0  3  0  0  0  0  0  0  0  0  0  0
   18.6138   18.8351   23.5067 H   0  0  0  0  0  0  0  0  0  0  0  0
   19.5041   19.4282   24.7424 H   0  0  0  0  0  0  0  0  0  0  0  0
   20.2847   17.6143   24.0165 C   0  0  0  0  0  0  0  0  0  0  0  0
   20.3450   17.0918   23.0612 H   0  0  0  0  0  0  0  0  0  0  0  0
   21.2906   17.7862   24.4055 H   0  0  0  0  0  0  0  0  0  0  0  0
   19.7150   17.0122   24.7277 H   0  0  0  0  0  0  0  0  0  0  0  0
  1  2  1  0  0  0  0
  1  3  1  0  0  0  0
  1  4  1  0  0  0  0
  1  5  1  0  0  0  0
  5  6  1  0  0  0  0
  5  7  1  0  0  0  0
  5  8  1  0  0  0  0
  8  9  1  0  0  0  0
  8 10  1  0  0  0  0
  8 11  1  0  0  0  0
 11 12  1  0  0  0  0
 11 13  1  0  0  0  0
 11 14  1  0  0  0  0
 14 15  1  0  0  0  0
 14 16  1  0  0  0  0
 14 17  1  0  0  0  0
 17 18  1  0  0  0  0
 17 19  1  0  0  0  0
 17 20  1  0  0  0  0
M  END
> <VM2 Rank>
21

> <Conf_Id>
213

> <Probability>
0.40

> <Sum Probability>
99.30

> <Delta G>
2.105

> <G>
56.042

> <E>
33.210

> <-TS>
22.833

> <U+W>
17.113

> <U>
71.726

> <W>
-54.613

> <W(PB)>
-56.495

> <W(SA)>
1.883

> <Valence>
2.885

> <Coulomb>
68.822

> <VdW>
0.019

> <VdW6>
-4.600

> <VdW12>
4.619

> <Bond>
0.152

> <Angle>
0.862

> <Pdih>
1.872

> <Idih>
0.000

> <Tether>
0.000

$$$$
VeraChem MOL file


 20 19  0  0  0  0  0  0  0  0999 V2000     
   20.1912   17.7887   20.0712 C   0  0  0  0  0  0  0  0  0  0  0  0
   19.3182   17.9160   19.4180 H   0  0  0  0  0  0  0  0  0  0  0  0
   20.9721   17.2810   19.4906 H   0  0  0  0  0  0  0  0  0  0  0  0
   19.9058   17.1235   20.8953 H   0  0  0  0  0  0  0  0  0  0  0  0
   20.7007   19.1538   20.5884 C   0  0  0  0  0  0  0  0  0  0  0  0
   21.0398   19.7527   19.7316 H   0  0  0  0  0  0  0  0  0  0  0  0
   21.5863   19.0115   21.2210 H   0  0  0  0  0  0  0  0  0  0  0  0
   19.6199   19.9546   21.3553 C   0  0  0  0  0  0  0  0  0  0  0  0
   20.0327   20.9267   21.6555 H   0  0  0  0  0  0  0  0  0  0  0  0
   18.7946   20.1784   20.6665 H   0  0  0  0  0  0  0  0  0  0  0  0
   19.0316   19.2493   22.5999 C   0  0  0  0  0  0  0  0  0  0  0  0
   18.6215   18.2732   22.3303 H   0  0  0  0  0  0  0  0  0  0  0  0
   18.2064   19.8621   22.9717 H   0  0  0  0  0  0  0  0  0  0  0  0
   19.9913   19.0641   23.7659 N   0  3  0  0  0  0  0  0  0  0  0  0
   19.4613   19.1014   24.6505 H   0  0  0  0  0  0  0  0  0  0  0  0
   20.6481   19.8568   23.8198 H   0  0  0  0  0  0  0  0  0  0  0  0
   20.7313   17.7335   23.6823 C   0  0  0  0  0  0  0  0  0  0  0  0
   20.0036   16.9193   23.6731 H   0  0  0  0  0  0  0  0  0  0  0  0
   21.3305   17.7012   22.7718 H   0  0  0  0  0  0  0  0  0  0  0  0
   21.3831   17.6324   24.5528 H   0  0  0  0  0  0  0  0  0  0  0  0
  1  2  1  0  0  0  0
  1  3  1  0  0  0  0
  1  4  1  0  0  0  0
  1  5  1  0  0  0  0
  5  6  1  0  0  0  0
  5  7  1  0  0  0  0
  5  8  1  0  0  0  0
  8  9  1  0  0  0  0
  8 10  1  0  0  0  0
  8 11  1  0  0  0  0
 11 12  1  0  0  0  0
 11 13  1  0  0  0  0
 11 14  1  0  0  0  0
 14 15  1  0  0  0  0
 14 16  1  0  0  0  0
 14 17  1  0  0  0  0
 17 18  1  0  0  0  0
 17 19  1  0  0  0  0
 17 20  1  0  0  0  0
M  END
> <VM2 Rank>
22

> <Conf_Id>
270

> <Probability>
0.21

> <Sum Probability>
99.50

> <Delta G>
2.494

> <G>
56.431

> <E>
33.223

> <-TS>
23.209

> <U+W>
17.127

> <U>
72.122

> <W>
-54.995

> <W(PB)>
-56.810

> <W(SA)>
1.815

> <Valence>
3.197

> <Coulomb>
69.115

> <VdW>
-0.190

> <VdW6>
-5.585

> <VdW12>
5.395

> <Bond>
0.177

> <Angle>
1.207

> <Pdih>
1.812

> <Idih>
0.000

> <Tether>
0.000

$$$$
VeraChem MOL file


 20 19  0  0  0  0  0  0  0  0999 V2000     
   21.1594   18.7477   20.1118 C   0  0  0  0  0  0  0  0  0  0  0  0
   21.0673   19.6485   19.4912 H   0  0  0  0  0  0  0  0  0  0  0  0
   21.7916   18.9914   20.9743 H   0  0  0  0  0  0  0  0  0  0  0  0
   21.6844   17.9865   19.5204 H   0  0  0  0  0  0  0  0  0  0  0  0
   19.7693   18.2312   20.5494 C   0  0  0  0  0  0  0  0  0  0  0  0
   19.8771   17.3185   21.1494 H   0  0  0  0  0  0  0  0  0  0  0  0
   19.2042   17.9345   19.6547 H   0  0  0  0  0  0  0  0  0  0  0  0
   18.9462   19.2873   21.3270 C   0  0  0  0  0  0  0  0  0  0  0  0
   18.7588   20.1430   20.6650 H   0  0  0  0  0  0  0  0  0  0  0  0
   17.9587   18.8725   21.5686 H   0  0  0  0  0  0  0  0  0  0  0  0
   19.6032   19.8155   22.6239 C   0  0  0  0  0  0  0  0  0  0  0  0
   18.9825   20.6307   23.0043 H   0  0  0  0  0  0  0  0  0  0  0  0
   20.5933   20.2264   22.4130 H   0  0  0  0  0  0  0  0  0  0  0  0
   19.7307   18.8059   23.7550 N   0  3  0  0  0  0  0  0  0  0  0  0
   18.9308   18.1557   23.7477 H   0  0  0  0  0  0  0  0  0  0  0  0
   19.6605   19.2987   24.6589 H   0  0  0  0  0  0  0  0  0  0  0  0
   21.0573   18.0564   23.6960 C   0  0  0  0  0  0  0  0  0  0  0  0
   21.8774   18.7754   23.7517 H   0  0  0  0  0  0  0  0  0  0  0  0
   21.1159   17.3676   24.5416 H   0  0  0  0  0  0  0  0  0  0  0  0
   21.1229   17.4955   22.7631 H   0  0  0  0  0  0  0  0  0  0  0  0
  1  2  1  0  0  0  0
  1  3  1  0  0  0  0
  1  4  1  0  0  0  0
  1  5  1  0  0  0  0
  5  6  1  0  0  0  0
  5  7  1  0  0  0  0
  5  8  1  0  0  0  0
  8  9  1  0  0  0  0
  8 10  1  0  0  0  0
  8 11  1  0  0  0  0
 11 12  1  0  0  0  0
 11 13  1  0  0  0  0
 11 14  1  0  0  0  0
 14 15  1  0  0  0  0
 14 16  1  0  0  0  0
 14 17  1  0  0  0  0
 17 18  1  0  0  0  0
 17 19  1  0  0  0  0
 17 20  1  0  0  0  0
M  END
> <VM2 Rank>
23

> <Conf_Id>
112

> <Probability>
0.18

> <Sum Probability>
99.68

> <Delta G>
2.586

> <G>
56.523

> <E>
33.314

> <-TS>
23.209

> <U+W>
17.218

> <U>
72.122

> <W>
-54.904

> <W(PB)>
-56.725

> <W(SA)>
1.821

> <Valence>
3.197

> <Coulomb>
69.115

> <VdW>
-0.190

> <VdW6>
-5.585

> <VdW12>
5.395

> <Bond>
0.177

> <Angle>
1.207

> <Pdih>
1.813

> <Idih>
0.000

> <Tether>
0.000

$$$$
VeraChem MOL file


 20 19  0  0  0  0  0  0  0  0999 V2000     
   19.5902   19.9797   20.2744 C   0  0  0  0  0  0  0  0  0  0  0  0
   20.2477   20.7045   20.7721 H   0  0  0  0  0  0  0  0  0  0  0  0
   19.3545   20.3743   19.2774 H   0  0  0  0  0  0  0  0  0  0  0  0
   18.6455   19.9204   20.8268 H   0  0  0  0  0  0  0  0  0  0  0  0
   20.2677   18.5954   20.1556 C   0  0  0  0  0  0  0  0  0  0  0  0
   21.0706   18.6632   19.4081 H   0  0  0  0  0  0  0  0  0  0  0  0
   19.5465   17.8661   19.7606 H   0  0  0  0  0  0  0  0  0  0  0  0
   20.8782   18.0642   21.4776 C   0  0  0  0  0  0  0  0  0  0  0  0
   21.4083   17.1297   21.2514 H   0  0  0  0  0  0  0  0  0  0  0  0
   21.6440   18.7574   21.8477 H   0  0  0  0  0  0  0  0  0  0  0  0
   19.8443   17.7576   22.5861 C   0  0  0  0  0  0  0  0  0  0  0  0
   20.2979   17.0949   23.3274 H   0  0  0  0  0  0  0  0  0  0  0  0
   18.9941   17.2314   22.1449 H   0  0  0  0  0  0  0  0  0  0  0  0
   19.3065   18.9637   23.3401 N   0  3  0  0  0  0  0  0  0  0  0  0
   18.4974   18.6795   23.9142 H   0  0  0  0  0  0  0  0  0  0  0  0
   18.9368   19.6588   22.6767 H   0  0  0  0  0  0  0  0  0  0  0  0
   20.3790   19.5833   24.2292 C   0  0  0  0  0  0  0  0  0  0  0  0
   21.2038   19.9395   23.6092 H   0  0  0  0  0  0  0  0  0  0  0  0
   19.9466   20.4215   24.7800 H   0  0  0  0  0  0  0  0  0  0  0  0
   20.7423   18.8302   24.9318 H   0  0  0  0  0  0  0  0  0  0  0  0
  1  2  1  0  0  0  0
  1  3  1  0  0  0  0
  1  4  1  0  0  0  0
  1  5  1  0  0  0  0
  5  6  1  0  0  0  0
  5  7  1  0  0  0  0
  5  8  1  0  0  0  0
  8  9  1  0  0  0  0
  8 10  1  0  0  0  0
  8 11  1  0  0  0  0
 11 12  1  0  0  0  0
 11 13  1  0  0  0  0
 11 14  1  0  0  0  0
 14 15  1  0  0  0  0
 14 16  1  0  0  0  0
 14 17  1  0  0  0  0
 17 18  1  0  0  0  0
 17 19  1  0  0  0  0
 17 20  1  0  0  0  0
M  END
> <VM2 Rank>
24

> <Conf_Id>
256

> <Probability>
0.09

> <Sum Probability>
99.77

> <Delta G>
3.016

> <G>
56.953

> <E>
34.178

> <-TS>
22.775

> <U+W>
18.081

> <U>
72.490

> <W>
-54.409

> <W(PB)>
-56.269

> <W(SA)>
1.860

> <Valence>
2.738

> <Coulomb>
69.795

> <VdW>
-0.043

> <VdW6>
-5.333

> <VdW12>
5.290

> <Bond>
0.182

> <Angle>
1.135

> <Pdih>
1.422

> <Idih>
0.000

> <Tether>
0.000

$$$$
VeraChem MOL file


 20 19  0  0  0  0  0  0  0  0999 V2000     
   18.9673   19.3630   20.2480 C   0  0  0  0  0  0  0  0  0  0  0  0
   18.2161   18.6933   20.6867 H   0  0  0  0  0  0  0  0  0  0  0  0
   19.0120   20.2831   20.8419 H   0  0  0  0  0  0  0  0  0  0  0  0
   18.6176   19.6446   19.2463 H   0  0  0  0  0  0  0  0  0  0  0  0
   20.3491   18.6758   20.1589 C   0  0  0  0  0  0  0  0  0  0  0  0
   21.1011   19.4047   19.8255 H   0  0  0  0  0  0  0  0  0  0  0  0
   20.3055   17.9055   19.3761 H   0  0  0  0  0  0  0  0  0  0  0  0
   20.8182   18.0049   21.4752 C   0  0  0  0  0  0  0  0  0  0  0  0
   20.1029   17.2320   21.7833 H   0  0  0  0  0  0  0  0  0  0  0  0
   21.7566   17.4746   21.2662 H   0  0  0  0  0  0  0  0  0  0  0  0
   21.0871   18.9883   22.6380 C   0  0  0  0  0  0  0  0  0  0  0  0
   21.6390   19.8505   22.2554 H   0  0  0  0  0  0  0  0  0  0  0  0
   21.7139   18.4972   23.3866 H   0  0  0  0  0  0  0  0  0  0  0  0
   19.8550   19.5069   23.3630 N   0  3  0  0  0  0  0  0  0  0  0  0
   19.1918   19.9112   22.6873 H   0  0  0  0  0  0  0  0  0  0  0  0
   20.1219   20.2885   23.9819 H   0  0  0  0  0  0  0  0  0  0  0  0
   19.1893   18.4050   24.1798 C   0  0  0  0  0  0  0  0  0  0  0  0
   18.3324   18.8229   24.7128 H   0  0  0  0  0  0  0  0  0  0  0  0
   18.8522   17.6105   23.5114 H   0  0  0  0  0  0  0  0  0  0  0  0
   19.9089   18.0050   24.8972 H   0  0  0  0  0  0  0  0  0  0  0  0
  1  2  1  0  0  0  0
  1  3  1  0  0  0  0
  1  4  1  0  0  0  0
  1  5  1  0  0  0  0
  5  6  1  0  0  0  0
  5  7  1  0  0  0  0
  5  8  1  0  0  0  0
  8  9  1  0  0  0  0
  8 10  1  0  0  0  0
  8 11  1  0  0  0  0
 11 12  1  0  0  0  0
 11 13  1  0  0  0  0
 11 14  1  0  0  0  0
 14 15  1  0  0  0  0
 14 16  1  0  0  0  0
 14 17  1  0  0  0  0
 17 18  1  0  0  0  0
 17 19  1  0  0  0  0
 17 20  1  0  0  0  0
M  END
> <VM2 Rank>
25

> <Conf_Id>
145

> <Probability>
0.08

> <Sum Probability>
99.85

> <Delta G>
3.071

> <G>
57.008

> <E>
34.232

> <-TS>
22.776

> <U+W>
18.136

> <U>
72.490

> <W>
-54.354

> <W(PB)>
-56.200

> <W(SA)>
1.845

> <Valence>
2.739

> <Coulomb>
69.795

> <VdW>
-0.043

> <VdW6>
-5.333

> <VdW12>
5.289

> <Bond>
0.182

> <Angle>
1.134

> <Pdih>
1.423

> <Idih>
0.000

> <Tether>
0.000

$$$$
VeraChem MOL file


 20 19  0  0  0  0  0  0  0  0999 V2000     
   18.9213   18.4872   20.1527 C   0  0  0  0  0  0  0  0  0  0  0  0
   18.3350   19.3965   20.3390 H   0  0  0  0  0  0  0  0  0  0  0  0
   18.5768   18.0591   19.2023 H   0  0  0  0  0  0  0  0  0  0  0  0
   18.6970   17.7528   20.9353 H   0  0  0  0  0  0  0  0  0  0  0  0
   20.4338   18.7982   20.0822 C   0  0  0  0  0  0  0  0  0  0  0  0
   20.6331   19.3623   19.1601 H   0  0  0  0  0  0  0  0  0  0  0  0
   20.9963   17.8583   19.9903 H   0  0  0  0  0  0  0  0  0  0  0  0
   20.9779   19.6154   21.2817 C   0  0  0  0  0  0  0  0  0  0  0  0
   22.0368   19.8337   21.0894 H   0  0  0  0  0  0  0  0  0  0  0  0
   20.4754   20.5900   21.3397 H   0  0  0  0  0  0  0  0  0  0  0  0
   20.8854   18.8916   22.6418 C   0  0  0  0  0  0  0  0  0  0  0  0
   21.5981   19.3437   23.3363 H   0  0  0  0  0  0  0  0  0  0  0  0
   21.1532   17.8392   22.5190 H   0  0  0  0  0  0  0  0  0  0  0  0
   19.5203   18.9666   23.2989 N   0  3  0  0  0  0  0  0  0  0  0  0
   18.8010   18.5992   22.6599 H   0  0  0  0  0  0  0  0  0  0  0  0
   19.2613   19.9508   23.4668 H   0  0  0  0  0  0  0  0  0  0  0  0
   19.5272   18.1851   24.6057 C   0  0  0  0  0  0  0  0  0  0  0  0
   20.2746   18.6136   25.2769 H   0  0  0  0  0  0  0  0  0  0  0  0
   18.5391   18.2481   25.0669 H   0  0  0  0  0  0  0  0  0  0  0  0
   19.7714   17.1408   24.3993 H   0  0  0  0  0  0  0  0  0  0  0  0
  1  2  1  0  0  0  0
  1  3  1  0  0  0  0
  1  4  1  0  0  0  0
  1  5  1  0  0  0  0
  5  6  1  0  0  0  0
  5  7  1  0  0  0  0
  5  8  1  0  0  0  0
  8  9  1  0  0  0  0
  8 10  1  0  0  0  0
  8 11  1  0  0  0  0
 11 12  1  0  0  0  0
 11 13  1  0  0  0  0
 11 14  1  0  0  0  0
 14 15  1  0  0  0  0
 14 16  1  0  0  0  0
 14 17  1  0  0  0  0
 17 18  1  0  0  0  0
 17 19  1  0  0  0  0
 17 20  1  0  0  0  0
M  END
> <VM2 Rank>
26

> <Conf_Id>
292

> <Probability>
0.08

> <Sum Probability>
99.92

> <Delta G>
3.080

> <G>
57.017

> <E>
34.322

> <-TS>
22.695

> <U+W>
18.226

> <U>
72.042

> <W>
-53.816

> <W(PB)>
-55.689

> <W(SA)>
1.873

> <Valence>
2.428

> <Coulomb>
69.829

> <VdW>
-0.215

> <VdW6>
-4.563

> <VdW12>
4.348

> <Bond>
0.137

> <Angle>
0.936

> <Pdih>
1.356

> <Idih>
0.000

> <Tether>
0.000

$$$$
VeraChem MOL file


 20 19  0  0  0  0  0  0  0  0999 V2000     
   20.4692   20.0202   20.2177 C   0  0  0  0  0  0  0  0  0  0  0  0
   20.9401   20.3997   19.3014 H   0  0  0  0  0  0  0  0  0  0  0  0
   19.5582   20.6078   20.3905 H   0  0  0  0  0  0  0  0  0  0  0  0
   21.1719   20.2036   21.0390 H   0  0  0  0  0  0  0  0  0  0  0  0
   20.1481   18.5153   20.0701 C   0  0  0  0  0  0  0  0  0  0  0  0
   21.0859   17.9472   19.9938 H   0  0  0  0  0  0  0  0  0  0  0  0
   19.6216   18.3610   19.1178 H   0  0  0  0  0  0  0  0  0  0  0  0
   19.2763   17.9301   21.2105 C   0  0  0  0  0  0  0  0  0  0  0  0
   18.3046   18.4400   21.2488 H   0  0  0  0  0  0  0  0  0  0  0  0
   19.0571   16.8826   20.9646 H   0  0  0  0  0  0  0  0  0  0  0  0
   19.9429   17.9580   22.6023 C   0  0  0  0  0  0  0  0  0  0  0  0
   20.9972   17.6847   22.5124 H   0  0  0  0  0  0  0  0  0  0  0  0
   19.4557   17.2216   23.2465 H   0  0  0  0  0  0  0  0  0  0  0  0
   19.8520   19.2951   23.3128 N   0  3  0  0  0  0  0  0  0  0  0  0
   18.8638   19.5571   23.4501 H   0  0  0  0  0  0  0  0  0  0  0  0
   20.2523   20.0367   22.7207 H   0  0  0  0  0  0  0  0  0  0  0  0
   20.5774   19.2253   24.6497 C   0  0  0  0  0  0  0  0  0  0  0  0
   21.6273   18.9790   24.4771 H   0  0  0  0  0  0  0  0  0  0  0  0
   20.5036   20.1938   25.1492 H   0  0  0  0  0  0  0  0  0  0  0  0
   20.1145   18.4550   25.2702 H   0  0  0  0  0  0  0  0  0  0  0  0
  1  2  1  0  0  0  0
  1  3  1  0  0  0  0
  1  4  1  0  0  0  0
  1  5  1  0  0  0  0
  5  6  1  0  0  0  0
  5  7  1  0  0  0  0
  5  8  1  0  0  0  0
  8  9  1  0  0  0  0
  8 10  1  0  0  0  0
  8 11  1  0  0  0  0
 11 12  1  0  0  0  0
 11 13  1  0  0  0  0
 11 14  1  0  0  0  0
 14 15  1  0  0  0  0
 14 16  1  0  0  0  0
 14 17  1  0  0  0  0
 17 18  1  0  0  0  0
 17 19  1  0  0  0  0
 17 20  1  0  0  0  0
M  END
> <VM2 Rank>
27

> <Conf_Id>
61

> <Probability>
0.07

> <Sum Probability>
99.99

> <Delta G>
3.143

> <G>
57.080

> <E>
34.384

> <-TS>
22.696

> <U+W>
18.288

> <U>
72.042

> <W>
-53.754

> <W(PB)>
-55.643

> <W(SA)>
1.890

> <Valence>
2.428

> <Coulomb>
69.829

> <VdW>
-0.215

> <VdW6>
-4.563

> <VdW12>
4.348

> <Bond>
0.137

> <Angle>
0.936

> <Pdih>
1.356

> <Idih>
0.000

> <Tether>
0.000

$$$$
VeraChem MOL file


 20 19  0  0  0  0  0  0  0  0999 V2000     
   19.0667   18.1605   20.2301 C   0  0  0  0  0  0  0  0  0  0  0  0
   18.5130   17.9864   21.1586 H   0  0  0  0  0  0  0  0  0  0  0  0
   18.5456   18.9472   19.6692 H   0  0  0  0  0  0  0  0  0  0  0  0
   19.0138   17.2395   19.6353 H   0  0  0  0  0  0  0  0  0  0  0  0
   20.5407   18.5518   20.4905 C   0  0  0  0  0  0  0  0  0  0  0  0
   21.0307   18.6880   19.5161 H   0  0  0  0  0  0  0  0  0  0  0  0
   21.0774   17.7298   20.9840 H   0  0  0  0  0  0  0  0  0  0  0  0
   20.6965   19.8603   21.3063 C   0  0  0  0  0  0  0  0  0  0  0  0
   21.6316   20.3457   20.9970 H   0  0  0  0  0  0  0  0  0  0  0  0
   19.8971   20.5677   21.0493 H   0  0  0  0  0  0  0  0  0  0  0  0
   20.7685   19.6783   22.8412 C   0  0  0  0  0  0  0  0  0  0  0  0
   20.9345   20.6619   23.2879 H   0  0  0  0  0  0  0  0  0  0  0  0
   21.6218   19.0492   23.1062 H   0  0  0  0  0  0  0  0  0  0  0  0
   19.5314   19.1009   23.5075 N   0  3  0  0  0  0  0  0  0  0  0  0
   18.6881   19.3474   22.9692 H   0  0  0  0  0  0  0  0  0  0  0  0
   19.3994   19.5450   24.4296 H   0  0  0  0  0  0  0  0  0  0  0  0
   19.6622   17.5921   23.6874 C   0  0  0  0  0  0  0  0  0  0  0  0
   20.5320   17.3803   24.3130 H   0  0  0  0  0  0  0  0  0  0  0  0
   18.7606   17.2096   24.1708 H   0  0  0  0  0  0  0  0  0  0  0  0
   19.7867   17.1175   22.7127 H   0  0  0  0  0  0  0  0  0  0  0  0
  1  2  1  0  0  0  0
  1  3  1  0  0  0  0
  1  4  1  0  0  0  0
  1  5  1  0  0  0  0
  5  6  1  0  0  0  0
  5  7  1  0  0  0  0
  5  8  1  0  0  0  0
  8  9  1  0  0  0  0
  8 10  1  0  0  0  0
  8 11  1  0  0  0  0
 11 12  1  0  0  0  0
 11 13  1  0  0  0  0
 11 14  1  0  0  0  0
 14 15  1  0  0  0  0
 14 16  1  0  0  0  0
 14 17  1  0  0  0  0
 17 18  1  0  0  0  0
 17 19  1  0  0  0  0
 17 20  1  0  0  0  0
M  END
> <VM2 Rank>
28

> <Conf_Id>
251

> <Probability>
0.00

> <Sum Probability>
100.00

> <Delta G>
4.836

> <G>
58.773

> <E>
35.631

> <-TS>
23.142

> <U+W>
19.535

> <U>
74.442

> <W>
-54.907

> <W(PB)>
-56.714

> <W(SA)>
1.807

> <Valence>
5.113

> <Coulomb>
69.460

> <VdW>
-0.131

> <VdW6>
-5.677

> <VdW12>
5.546

> <Bond>
0.188

> <Angle>
1.349

> <Pdih>
3.577

> <Idih>
0.000

> <Tether>
0.000

$$$$
VeraChem MOL file


 20 19  0  0  0  0  0  0  0  0999 V2000     
   20.7910   19.8683   20.3023 C   0  0  0  0  0  0  0  0  0  0  0  0
   20.0333   20.4205   19.7313 H   0  0  0  0  0  0  0  0  0  0  0  0
   20.9302   20.3809   21.2599 H   0  0  0  0  0  0  0  0  0  0  0  0
   21.7369   19.9364   19.7496 H   0  0  0  0  0  0  0  0  0  0  0  0
   20.3762   18.3888   20.4836 C   0  0  0  0  0  0  0  0  0  0  0  0
   21.1719   17.8235   20.9881 H   0  0  0  0  0  0  0  0  0  0  0  0
   20.2772   17.9414   19.4846 H   0  0  0  0  0  0  0  0  0  0  0  0
   19.0330   18.2128   21.2367 C   0  0  0  0  0  0  0  0  0  0  0  0
   18.3442   19.0297   20.9842 H   0  0  0  0  0  0  0  0  0  0  0  0
   18.5531   17.2966   20.8680 H   0  0  0  0  0  0  0  0  0  0  0  0
   19.1493   18.0747   22.7733 C   0  0  0  0  0  0  0  0  0  0  0  0
   19.7591   17.2044   23.0282 H   0  0  0  0  0  0  0  0  0  0  0  0
   18.1463   17.9006   23.1711 H   0  0  0  0  0  0  0  0  0  0  0  0
   19.7089   19.2767   23.5150 N   0  3  0  0  0  0  0  0  0  0  0  0
   19.2275   19.3744   24.4226 H   0  0  0  0  0  0  0  0  0  0  0  0
   19.4926   20.1444   23.0031 H   0  0  0  0  0  0  0  0  0  0  0  0
   21.2076   19.1226   23.7520 C   0  0  0  0  0  0  0  0  0  0  0  0
   21.7217   19.0344   22.7936 H   0  0  0  0  0  0  0  0  0  0  0  0
   21.5772   19.9991   24.2888 H   0  0  0  0  0  0  0  0  0  0  0  0
   21.3853   18.2252   24.3484 H   0  0  0  0  0  0  0  0  0  0  0  0
  1  2  1  0  0  0  0
  1  3  1  0  0  0  0
  1  4  1  0  0  0  0
  1  5  1  0  0  0  0
  5  6  1  0  0  0  0
  5  7  1  0  0  0  0
  5  8  1  0  0  0  0
  8  9  1  0  0  0  0
  8 10  1  0  0  0  0
  8 11  1  0  0  0  0
 11 12  1  0  0  0  0
 11 13  1  0  0  0  0
 11 14  1  0  0  0  0
 14 15  1  0  0  0  0
 14 16  1  0  0  0  0
 14 17  1  0  0  0  0
 17 18  1  0  0  0  0
 17 19  1  0  0  0  0
 17 20  1  0  0  0  0
M  END
> <VM2 Rank>
29

> <Conf_Id>
136

> <Probability>
0.00

> <Sum Probability>
100.00

> <Delta G>
4.904

> <G>
58.841

> <E>
35.699

> <-TS>
23.143

> <U+W>
19.602

> <U>
74.442

> <W>
-54.840

> <W(PB)>
-56.669

> <W(SA)>
1.829

> <Valence>
5.113

> <Coulomb>
69.460

> <VdW>
-0.131

> <VdW6>
-5.678

> <VdW12>
5.547

> <Bond>
0.188

> <Angle>
1.349

> <Pdih>
3.576

> <Idih>
0.000

> <Tether>
0.000

$$$$
