VeraChem MOL file


 20 19  0  0  0  0  0  0  0  0999 V2000     
   19.7358   18.9391   25.6479 N   0  3  0  0  0  0  0  0  0  0  0  0
   20.2632   19.1851   26.4922 H   0  0  0  0  0  0  0  0  0  0  0  0
   18.8387   19.4314   25.7041 H   0  0  0  0  0  0  0  0  0  0  0  0
   19.5331   17.9362   25.7060 H   0  0  0  0  0  0  0  0  0  0  0  0
   20.4973   19.2912   24.3858 C   0  0  0  0  0  0  0  0  0  0  0  0
   21.4511   18.7571   24.4071 H   0  0  0  0  0  0  0  0  0  0  0  0
   20.7045   20.3646   24.4050 H   0  0  0  0  0  0  0  0  0  0  0  0
   19.7326   18.9344   23.0985 C   0  0  0  0  0  0  0  0  0  0  0  0
   19.5127   17.8584   23.0910 H   0  0  0  0  0  0  0  0  0  0  0  0
   18.7685   19.4603   23.0890 H   0  0  0  0  0  0  0  0  0  0  0  0
   20.5421   19.3090   21.8371 C   0  0  0  0  0  0  0  0  0  0  0  0
   21.5081   18.7851   21.8525 H   0  0  0  0  0  0  0  0  0  0  0  0
   20.7647   20.3851   21.8505 H   0  0  0  0  0  0  0  0  0  0  0  0
   19.7839   18.9552   20.5381 C   0  0  0  0  0  0  0  0  0  0  0  0
   19.5610   17.8790   20.5196 H   0  0  0  0  0  0  0  0  0  0  0  0
   18.8178   19.4789   20.5177 H   0  0  0  0  0  0  0  0  0  0  0  0
   20.5964   19.3312   19.2806 C   0  0  0  0  0  0  0  0  0  0  0  0
   20.0420   19.0725   18.3691 H   0  0  0  0  0  0  0  0  0  0  0  0
   20.8056   20.4085   19.2529 H   0  0  0  0  0  0  0  0  0  0  0  0
   21.5547   18.7961   19.2548 H   0  0  0  0  0  0  0  0  0  0  0  0
  1  2  1  0  0  0  0
  1  3  1  0  0  0  0
  1  4  1  0  0  0  0
  1  5  1  0  0  0  0
  5  6  1  0  0  0  0
  5  7  1  0  0  0  0
  5  8  1  0  0  0  0
  8  9  1  0  0  0  0
  8 10  1  0  0  0  0
  8 11  1  0  0  0  0
 11 12  1  0  0  0  0
 11 13  1  0  0  0  0
 11 14  1  0  0  0  0
 14 15  1  0  0  0  0
 14 16  1  0  0  0  0
 14 17  1  0  0  0  0
 17 18  1  0  0  0  0
 17 19  1  0  0  0  0
 17 20  1  0  0  0  0
M  END
> <VM2 Rank>
1

> <Conf_Id>
170

> <Probability>
18.31

> <Sum Probability>
18.31

> <Delta G>
0.000

> <G>
27.005

> <E>
4.317

> <-TS>
22.689

> <U+W>
-11.779

> <U>
45.772

> <W>
-57.550

> <W(PB)>
-59.509

> <W(SA)>
1.960

> <Valence>
1.299

> <Coulomb>
44.177

> <VdW>
0.297

> <VdW6>
-3.490

> <VdW12>
3.786

> <Bond>
0.096

> <Angle>
0.381

> <Pdih>
0.822

> <Idih>
0.000

> <Tether>
0.000

$$$$
VeraChem MOL file


 20 19  0  0  0  0  0  0  0  0999 V2000     
   20.6068   18.3919   25.0324 N   0  3  0  0  0  0  0  0  0  0  0  0
   21.4066   18.1398   24.4443 H   0  0  0  0  0  0  0  0  0  0  0  0
   20.9677   18.5359   25.9814 H   0  0  0  0  0  0  0  0  0  0  0  0
   19.9887   17.5754   25.0696 H   0  0  0  0  0  0  0  0  0  0  0  0
   19.8880   19.6214   24.5113 C   0  0  0  0  0  0  0  0  0  0  0  0
   20.5935   20.4566   24.5202 H   0  0  0  0  0  0  0  0  0  0  0  0
   19.0786   19.8527   25.2091 H   0  0  0  0  0  0  0  0  0  0  0  0
   19.3062   19.4491   23.0944 C   0  0  0  0  0  0  0  0  0  0  0  0
   18.6022   18.6063   23.0873 H   0  0  0  0  0  0  0  0  0  0  0  0
   18.7230   20.3461   22.8474 H   0  0  0  0  0  0  0  0  0  0  0  0
   20.3993   19.2368   22.0200 C   0  0  0  0  0  0  0  0  0  0  0  0
   20.9647   18.3208   22.2377 H   0  0  0  0  0  0  0  0  0  0  0  0
   21.1154   20.0695   22.0565 H   0  0  0  0  0  0  0  0  0  0  0  0
   19.7980   19.1368   20.6002 C   0  0  0  0  0  0  0  0  0  0  0  0
   19.0801   18.3056   20.5588 H   0  0  0  0  0  0  0  0  0  0  0  0
   19.2355   20.0525   20.3695 H   0  0  0  0  0  0  0  0  0  0  0  0
   20.8897   18.9240   19.5298 C   0  0  0  0  0  0  0  0  0  0  0  0
   20.4436   18.8562   18.5291 H   0  0  0  0  0  0  0  0  0  0  0  0
   21.6047   19.7571   19.5237 H   0  0  0  0  0  0  0  0  0  0  0  0
   21.4474   17.9963   19.7131 H   0  0  0  0  0  0  0  0  0  0  0  0
  1  2  1  0  0  0  0
  1  3  1  0  0  0  0
  1  4  1  0  0  0  0
  1  5  1  0  0  0  0
  5  6  1  0  0  0  0
  5  7  1  0  0  0  0
  5  8  1  0  0  0  0
  8  9  1  0  0  0  0
  8 10  1  0  0  0  0
  8 11  1  0  0  0  0
 11 12  1  0  0  0  0
 11 13  1  0  0  0  0
 11 14  1  0  0  0  0
 14 15  1  0  0  0  0
 14 16  1  0  0  0  0
 14 17  1  0  0  0  0
 17 18  1  0  0  0  0
 17 19  1  0  0  0  0
 17 20  1  0  0  0  0
M  END
> <VM2 Rank>
2

> <Conf_Id>
281

> <Probability>
11.03

> <Sum Probability>
29.34

> <Delta G>
0.303

> <G>
27.308

> <E>
4.519

> <-TS>
22.789

> <U+W>
-11.577

> <U>
46.423

> <W>
-58.000

> <W(PB)>
-59.939

> <W(SA)>
1.939

> <Valence>
1.410

> <Coulomb>
44.613

> <VdW>
0.400

> <VdW6>
-4.001

> <VdW12>
4.401

> <Bond>
0.117

> <Angle>
0.430

> <Pdih>
0.863

> <Idih>
0.000

> <Tether>
0.000

$$$$
VeraChem MOL file


 20 19  0  0  0  0  0  0  0  0999 V2000     
   19.8800   19.9564   25.0304 N   0  3  0  0  0  0  0  0  0  0  0  0
   20.2038   20.7289   24.4411 H   0  0  0  0  0  0  0  0  0  0  0  0
   18.8573   20.0107   25.0664 H   0  0  0  0  0  0  0  0  0  0  0  0
   20.2218   20.1412   25.9794 H   0  0  0  0  0  0  0  0  0  0  0  0
   20.3564   18.6130   24.5125 C   0  0  0  0  0  0  0  0  0  0  0  0
   20.0105   17.8467   25.2116 H   0  0  0  0  0  0  0  0  0  0  0  0
   21.4497   18.6134   24.5226 H   0  0  0  0  0  0  0  0  0  0  0  0
   19.8510   18.2766   23.0959 C   0  0  0  0  0  0  0  0  0  0  0  0
   20.1607   17.2519   22.8512 H   0  0  0  0  0  0  0  0  0  0  0  0
   18.7529   18.2820   23.0876 H   0  0  0  0  0  0  0  0  0  0  0  0
   20.3946   19.2468   22.0200 C   0  0  0  0  0  0  0  0  0  0  0  0
   21.4929   19.2571   22.0575 H   0  0  0  0  0  0  0  0  0  0  0  0
   20.0591   20.2700   22.2353 H   0  0  0  0  0  0  0  0  0  0  0  0
   19.9318   18.8488   20.6005 C   0  0  0  0  0  0  0  0  0  0  0  0
   20.2692   17.8280   20.3722 H   0  0  0  0  0  0  0  0  0  0  0  0
   18.8336   18.8361   20.5582 H   0  0  0  0  0  0  0  0  0  0  0  0
   20.4741   19.8184   19.5287 C   0  0  0  0  0  0  0  0  0  0  0  0
   20.1245   20.8432   19.7097 H   0  0  0  0  0  0  0  0  0  0  0  0
   21.5719   19.8277   19.5236 H   0  0  0  0  0  0  0  0  0  0  0  0
   20.1354   19.5192   18.5283 H   0  0  0  0  0  0  0  0  0  0  0  0
  1  2  1  0  0  0  0
  1  3  1  0  0  0  0
  1  4  1  0  0  0  0
  1  5  1  0  0  0  0
  5  6  1  0  0  0  0
  5  7  1  0  0  0  0
  5  8  1  0  0  0  0
  8  9  1  0  0  0  0
  8 10  1  0  0  0  0
  8 11  1  0  0  0  0
 11 12  1  0  0  0  0
 11 13  1  0  0  0  0
 11 14  1  0  0  0  0
 14 15  1  0  0  0  0
 14 16  1  0  0  0  0
 14 17  1  0  0  0  0
 17 18  1  0  0  0  0
 17 19  1  0  0  0  0
 17 20  1  0  0  0  0
M  END
> <VM2 Rank>
3

> <Conf_Id>
259

> <Probability>
10.31

> <Sum Probability>
39.65

> <Delta G>
0.342

> <G>
27.348

> <E>
4.559

> <-TS>
22.789

> <U+W>
-11.538

> <U>
46.423

> <W>
-57.961

> <W(PB)>
-59.893

> <W(SA)>
1.932

> <Valence>
1.410

> <Coulomb>
44.613

> <VdW>
0.400

> <VdW6>
-4.001

> <VdW12>
4.401

> <Bond>
0.117

> <Angle>
0.430

> <Pdih>
0.863

> <Idih>
0.000

> <Tether>
0.000

$$$$
VeraChem MOL file


 20 19  0  0  0  0  0  0  0  0999 V2000     
   19.6445   19.3205   25.4425 N   0  3  0  0  0  0  0  0  0  0  0  0
   20.2499   18.6687   25.9515 H   0  0  0  0  0  0  0  0  0  0  0  0
   19.6157   20.1877   25.9891 H   0  0  0  0  0  0  0  0  0  0  0  0
   18.6981   18.9275   25.4587 H   0  0  0  0  0  0  0  0  0  0  0  0
   20.1337   19.5617   24.0287 C   0  0  0  0  0  0  0  0  0  0  0  0
   21.1310   20.0060   24.0877 H   0  0  0  0  0  0  0  0  0  0  0  0
   19.4620   20.2858   23.5606 H   0  0  0  0  0  0  0  0  0  0  0  0
   20.1886   18.2769   23.1805 C   0  0  0  0  0  0  0  0  0  0  0  0
   20.8314   17.5422   23.6835 H   0  0  0  0  0  0  0  0  0  0  0  0
   19.1872   17.8300   23.1218 H   0  0  0  0  0  0  0  0  0  0  0  0
   20.7317   18.5248   21.7532 C   0  0  0  0  0  0  0  0  0  0  0  0
   20.8305   17.5578   21.2407 H   0  0  0  0  0  0  0  0  0  0  0  0
   21.7441   18.9479   21.8143 H   0  0  0  0  0  0  0  0  0  0  0  0
   19.8273   19.4557   20.9109 C   0  0  0  0  0  0  0  0  0  0  0  0
   18.8071   19.0486   20.8751 H   0  0  0  0  0  0  0  0  0  0  0  0
   19.7577   20.4453   21.3824 H   0  0  0  0  0  0  0  0  0  0  0  0
   20.3622   19.6204   19.4722 C   0  0  0  0  0  0  0  0  0  0  0  0
   19.7098   20.2837   18.8896 H   0  0  0  0  0  0  0  0  0  0  0  0
   21.3701   20.0555   19.4731 H   0  0  0  0  0  0  0  0  0  0  0  0
   20.4077   18.6536   18.9541 H   0  0  0  0  0  0  0  0  0  0  0  0
  1  2  1  0  0  0  0
  1  3  1  0  0  0  0
  1  4  1  0  0  0  0
  1  5  1  0  0  0  0
  5  6  1  0  0  0  0
  5  7  1  0  0  0  0
  5  8  1  0  0  0  0
  8  9  1  0  0  0  0
  8 10  1  0  0  0  0
  8 11  1  0  0  0  0
 11 12  1  0  0  0  0
 11 13  1  0  0  0  0
 11 14  1  0  0  0  0
 14 15  1  0  0  0  0
 14 16  1  0  0  0  0
 14 17  1  0  0  0  0
 17 18  1  0  0  0  0
 17 19  1  0  0  0  0
 17 20  1  0  0  0  0
M  END
> <VM2 Rank>
4

> <Conf_Id>
276

> <Probability>
8.06

> <Sum Probability>
47.71

> <Delta G>
0.489

> <G>
27.495

> <E>
4.711

> <-TS>
22.784

> <U+W>
-11.386

> <U>
46.508

> <W>
-57.894

> <W(PB)>
-59.824

> <W(SA)>
1.930

> <Valence>
1.610

> <Coulomb>
44.536

> <VdW>
0.363

> <VdW6>
-4.057

> <VdW12>
4.419

> <Bond>
0.118

> <Angle>
0.515

> <Pdih>
0.977

> <Idih>
0.000

> <Tether>
0.000

$$$$
VeraChem MOL file


 20 19  0  0  0  0  0  0  0  0999 V2000     
   19.9685   18.6227   25.4434 N   0  3  0  0  0  0  0  0  0  0  0  0
   20.6121   18.0426   25.9918 H   0  0  0  0  0  0  0  0  0  0  0  0
   19.8602   19.5067   25.9504 H   0  0  0  0  0  0  0  0  0  0  0  0
   19.0578   18.1529   25.4595 H   0  0  0  0  0  0  0  0  0  0  0  0
   20.4698   18.8383   24.0297 C   0  0  0  0  0  0  0  0  0  0  0  0
   20.5905   17.8570   23.5635 H   0  0  0  0  0  0  0  0  0  0  0  0
   21.4525   19.3141   24.0888 H   0  0  0  0  0  0  0  0  0  0  0  0
   19.5242   19.7073   23.1787 C   0  0  0  0  0  0  0  0  0  0  0  0
   18.5368   19.2301   23.1201 H   0  0  0  0  0  0  0  0  0  0  0  0
   19.3769   20.6733   23.6797 H   0  0  0  0  0  0  0  0  0  0  0  0
   20.0654   19.9595   21.7515 C   0  0  0  0  0  0  0  0  0  0  0  0
   21.0417   20.4602   21.8126 H   0  0  0  0  0  0  0  0  0  0  0  0
   19.3908   20.6578   21.2369 H   0  0  0  0  0  0  0  0  0  0  0  0
   20.1940   18.6663   20.9118 C   0  0  0  0  0  0  0  0  0  0  0  0
   20.9048   17.9756   21.3853 H   0  0  0  0  0  0  0  0  0  0  0  0
   19.2248   18.1493   20.8762 H   0  0  0  0  0  0  0  0  0  0  0  0
   20.6662   18.9659   19.4730 C   0  0  0  0  0  0  0  0  0  0  0  0
   20.7527   18.0383   18.8923 H   0  0  0  0  0  0  0  0  0  0  0  0
   19.9572   19.6233   18.9530 H   0  0  0  0  0  0  0  0  0  0  0  0
   21.6488   19.4554   19.4738 H   0  0  0  0  0  0  0  0  0  0  0  0
  1  2  1  0  0  0  0
  1  3  1  0  0  0  0
  1  4  1  0  0  0  0
  1  5  1  0  0  0  0
  5  6  1  0  0  0  0
  5  7  1  0  0  0  0
  5  8  1  0  0  0  0
  8  9  1  0  0  0  0
  8 10  1  0  0  0  0
  8 11  1  0  0  0  0
 11 12  1  0  0  0  0
 11 13  1  0  0  0  0
 11 14  1  0  0  0  0
 14 15  1  0  0  0  0
 14 16  1  0  0  0  0
 14 17  1  0  0  0  0
 17 18  1  0  0  0  0
 17 19  1  0  0  0  0
 17 20  1  0  0  0  0
M  END
> <VM2 Rank>
5

> <Conf_Id>
90

> <Probability>
7.91

> <Sum Probability>
55.63

> <Delta G>
0.500

> <G>
27.506

> <E>
4.722

> <-TS>
22.784

> <U+W>
-11.375

> <U>
46.508

> <W>
-57.883

> <W(PB)>
-59.813

> <W(SA)>
1.931

> <Valence>
1.610

> <Coulomb>
44.536

> <VdW>
0.363

> <VdW6>
-4.056

> <VdW12>
4.419

> <Bond>
0.118

> <Angle>
0.515

> <Pdih>
0.977

> <Idih>
0.000

> <Tether>
0.000

$$$$
VeraChem MOL file


 20 19  0  0  0  0  0  0  0  0999 V2000     
   19.4823   19.4057   25.4133 N   0  3  0  0  0  0  0  0  0  0  0  0
   18.6901   18.7559   25.4356 H   0  0  0  0  0  0  0  0  0  0  0  0
   19.9097   19.3853   26.3452 H   0  0  0  0  0  0  0  0  0  0  0  0
   19.0969   20.3465   25.2838 H   0  0  0  0  0  0  0  0  0  0  0  0
   20.4786   19.0472   24.3291 C   0  0  0  0  0  0  0  0  0  0  0  0
   20.8695   18.0495   24.5467 H   0  0  0  0  0  0  0  0  0  0  0  0
   21.3066   19.7593   24.3827 H   0  0  0  0  0  0  0  0  0  0  0  0
   19.8688   19.0677   22.9160 C   0  0  0  0  0  0  0  0  0  0  0  0
   19.0279   18.3630   22.8713 H   0  0  0  0  0  0  0  0  0  0  0  0
   19.4643   20.0678   22.7155 H   0  0  0  0  0  0  0  0  0  0  0  0
   20.9190   18.6941   21.8432 C   0  0  0  0  0  0  0  0  0  0  0  0
   21.3668   17.7248   22.1033 H   0  0  0  0  0  0  0  0  0  0  0  0
   21.7385   19.4261   21.8567 H   0  0  0  0  0  0  0  0  0  0  0  0
   20.3341   18.5984   20.4130 C   0  0  0  0  0  0  0  0  0  0  0  0
   21.1170   18.2287   19.7359 H   0  0  0  0  0  0  0  0  0  0  0  0
   19.5297   17.8498   20.3895 H   0  0  0  0  0  0  0  0  0  0  0  0
   19.8052   19.9469   19.8734 C   0  0  0  0  0  0  0  0  0  0  0  0
   19.4872   19.8441   18.8278 H   0  0  0  0  0  0  0  0  0  0  0  0
   18.9394   20.2997   20.4474 H   0  0  0  0  0  0  0  0  0  0  0  0
   20.5829   20.7206   19.9126 H   0  0  0  0  0  0  0  0  0  0  0  0
  1  2  1  0  0  0  0
  1  3  1  0  0  0  0
  1  4  1  0  0  0  0
  1  5  1  0  0  0  0
  5  6  1  0  0  0  0
  5  7  1  0  0  0  0
  5  8  1  0  0  0  0
  8  9  1  0  0  0  0
  8 10  1  0  0  0  0
  8 11  1  0  0  0  0
 11 12  1  0  0  0  0
 11 13  1  0  0  0  0
 11 14  1  0  0  0  0
 14 15  1  0  0  0  0
 14 16  1  0  0  0  0
 14 17  1  0  0  0  0
 17 18  1  0  0  0  0
 17 19  1  0  0  0  0
 17 20  1  0  0  0  0
M  END
> <VM2 Rank>
6

> <Conf_Id>
126

> <Probability>
6.49

> <Sum Probability>
62.12

> <Delta G>
0.619

> <G>
27.624

> <E>
4.826

> <-TS>
22.799

> <U+W>
-11.271

> <U>
46.486

> <W>
-57.757

> <W(PB)>
-59.706

> <W(SA)>
1.949

> <Valence>
1.806

> <Coulomb>
44.248

> <VdW>
0.433

> <VdW6>
-4.089

> <VdW12>
4.522

> <Bond>
0.131

> <Angle>
0.628

> <Pdih>
1.047

> <Idih>
0.000

> <Tether>
0.000

$$$$
VeraChem MOL file


 20 19  0  0  0  0  0  0  0  0999 V2000     
   19.9291   18.4439   25.4144 N   0  3  0  0  0  0  0  0  0  0  0  0
   20.3995   17.5423   25.2871 H   0  0  0  0  0  0  0  0  0  0  0  0
   20.1884   18.7854   26.3459 H   0  0  0  0  0  0  0  0  0  0  0  0
   18.9215   18.2577   25.4362 H   0  0  0  0  0  0  0  0  0  0  0  0
   20.2988   19.4343   24.3287 C   0  0  0  0  0  0  0  0  0  0  0  0
   21.3770   19.6077   24.3828 H   0  0  0  0  0  0  0  0  0  0  0  0
   19.7884   20.3769   24.5439 H   0  0  0  0  0  0  0  0  0  0  0  0
   19.9224   18.9523   22.9161 C   0  0  0  0  0  0  0  0  0  0  0  0
   20.4258   17.9976   22.7180 H   0  0  0  0  0  0  0  0  0  0  0  0
   18.8415   18.7643   22.8708 H   0  0  0  0  0  0  0  0  0  0  0  0
   20.3154   19.9936   21.8416 C   0  0  0  0  0  0  0  0  0  0  0  0
   21.4033   20.1476   21.8559 H   0  0  0  0  0  0  0  0  0  0  0  0
   19.8634   20.9616   22.0994 H   0  0  0  0  0  0  0  0  0  0  0  0
   19.8663   19.6056   20.4118 C   0  0  0  0  0  0  0  0  0  0  0  0
   18.7754   19.4737   20.3875 H   0  0  0  0  0  0  0  0  0  0  0  0
   20.0894   20.4409   19.7332 H   0  0  0  0  0  0  0  0  0  0  0  0
   20.5560   18.3304   19.8754 C   0  0  0  0  0  0  0  0  0  0  0  0
   20.2733   18.1517   18.8299 H   0  0  0  0  0  0  0  0  0  0  0  0
   21.6489   18.4256   19.9154 H   0  0  0  0  0  0  0  0  0  0  0  0
   20.2666   17.4424   20.4509 H   0  0  0  0  0  0  0  0  0  0  0  0
  1  2  1  0  0  0  0
  1  3  1  0  0  0  0
  1  4  1  0  0  0  0
  1  5  1  0  0  0  0
  5  6  1  0  0  0  0
  5  7  1  0  0  0  0
  5  8  1  0  0  0  0
  8  9  1  0  0  0  0
  8 10  1  0  0  0  0
  8 11  1  0  0  0  0
 11 12  1  0  0  0  0
 11 13  1  0  0  0  0
 11 14  1  0  0  0  0
 14 15  1  0  0  0  0
 14 16  1  0  0  0  0
 14 17  1  0  0  0  0
 17 18  1  0  0  0  0
 17 19  1  0  0  0  0
 17 20  1  0  0  0  0
M  END
> <VM2 Rank>
7

> <Conf_Id>
144

> <Probability>
6.42

> <Sum Probability>
68.53

> <Delta G>
0.625

> <G>
27.631

> <E>
4.832

> <-TS>
22.798

> <U+W>
-11.264

> <U>
46.486

> <W>
-57.750

> <W(PB)>
-59.687

> <W(SA)>
1.936

> <Valence>
1.806

> <Coulomb>
44.248

> <VdW>
0.433

> <VdW6>
-4.089

> <VdW12>
4.522

> <Bond>
0.131

> <Angle>
0.628

> <Pdih>
1.047

> <Idih>
0.000

> <Tether>
0.000

$$$$
VeraChem MOL file


 20 19  0  0  0  0  0  0  0  0999 V2000     
   19.4805   19.1733   25.1477 N   0  3  0  0  0  0  0  0  0  0  0  0
   19.6590   19.4561   26.1171 H   0  0  0  0  0  0  0  0  0  0  0  0
   18.8426   19.8675   24.7474 H   0  0  0  0  0  0  0  0  0  0  0  0
   18.9743   18.2831   25.1858 H   0  0  0  0  0  0  0  0  0  0  0  0
   20.7649   19.0591   24.3494 C   0  0  0  0  0  0  0  0  0  0  0  0
   21.4080   18.3369   24.8597 H   0  0  0  0  0  0  0  0  0  0  0  0
   21.2645   20.0314   24.3680 H   0  0  0  0  0  0  0  0  0  0  0  0
   20.5553   18.6116   22.8893 C   0  0  0  0  0  0  0  0  0  0  0  0
   21.5429   18.4472   22.4407 H   0  0  0  0  0  0  0  0  0  0  0  0
   20.0379   17.6433   22.8736 H   0  0  0  0  0  0  0  0  0  0  0  0
   19.7662   19.6500   22.0525 C   0  0  0  0  0  0  0  0  0  0  0  0
   20.3014   20.6097   22.0540 H   0  0  0  0  0  0  0  0  0  0  0  0
   18.7936   19.8380   22.5260 H   0  0  0  0  0  0  0  0  0  0  0  0
   19.5138   19.2014   20.5923 C   0  0  0  0  0  0  0  0  0  0  0  0
   18.9665   18.2483   20.5854 H   0  0  0  0  0  0  0  0  0  0  0  0
   18.8561   19.9361   20.1071 H   0  0  0  0  0  0  0  0  0  0  0  0
   20.8072   19.0646   19.7567 C   0  0  0  0  0  0  0  0  0  0  0  0
   21.4449   18.2533   20.1287 H   0  0  0  0  0  0  0  0  0  0  0  0
   20.5658   18.8394   18.7099 H   0  0  0  0  0  0  0  0  0  0  0  0
   21.3889   19.9954   19.7735 H   0  0  0  0  0  0  0  0  0  0  0  0
  1  2  1  0  0  0  0
  1  3  1  0  0  0  0
  1  4  1  0  0  0  0
  1  5  1  0  0  0  0
  5  6  1  0  0  0  0
  5  7  1  0  0  0  0
  5  8  1  0  0  0  0
  8  9  1  0  0  0  0
  8 10  1  0  0  0  0
  8 11  1  0  0  0  0
 11 12  1  0  0  0  0
 11 13  1  0  0  0  0
 11 14  1  0  0  0  0
 14 15  1  0  0  0  0
 14 16  1  0  0  0  0
 14 17  1  0  0  0  0
 17 18  1  0  0  0  0
 17 19  1  0  0  0  0
 17 20  1  0  0  0  0
M  END
> <VM2 Rank>
8

> <Conf_Id>
33

> <Probability>
4.06

> <Sum Probability>
72.60

> <Delta G>
0.898

> <G>
27.903

> <E>
5.022

> <-TS>
22.881

> <U+W>
-11.075

> <U>
47.080

> <W>
-58.154

> <W(PB)>
-60.053

> <W(SA)>
1.899

> <Valence>
1.943

> <Coulomb>
44.572

> <VdW>
0.565

> <VdW6>
-4.575

> <VdW12>
5.139

> <Bond>
0.158

> <Angle>
0.700

> <Pdih>
1.085

> <Idih>
0.000

> <Tether>
0.000

$$$$
VeraChem MOL file


 20 19  0  0  0  0  0  0  0  0999 V2000     
   19.8977   19.9228   24.9641 N   0  3  0  0  0  0  0  0  0  0  0  0
   19.0638   20.2911   24.4971 H   0  0  0  0  0  0  0  0  0  0  0  0
   19.6811   19.8708   25.9650 H   0  0  0  0  0  0  0  0  0  0  0  0
   20.6392   20.6217   24.8555 H   0  0  0  0  0  0  0  0  0  0  0  0
   20.3071   18.5735   24.4060 C   0  0  0  0  0  0  0  0  0  0  0  0
   19.4854   17.8725   24.5756 H   0  0  0  0  0  0  0  0  0  0  0  0
   21.1729   18.2270   24.9768 H   0  0  0  0  0  0  0  0  0  0  0  0
   20.6625   18.6029   22.9066 C   0  0  0  0  0  0  0  0  0  0  0  0
   21.4890   19.3069   22.7470 H   0  0  0  0  0  0  0  0  0  0  0  0
   21.0340   17.6107   22.6180 H   0  0  0  0  0  0  0  0  0  0  0  0
   19.4525   18.9776   22.0145 C   0  0  0  0  0  0  0  0  0  0  0  0
   19.1256   20.0027   22.2344 H   0  0  0  0  0  0  0  0  0  0  0  0
   18.6069   18.3218   22.2646 H   0  0  0  0  0  0  0  0  0  0  0  0
   19.7433   18.8498   20.4995 C   0  0  0  0  0  0  0  0  0  0  0  0
   20.0432   17.8191   20.2638 H   0  0  0  0  0  0  0  0  0  0  0  0
   18.8125   19.0329   19.9446 H   0  0  0  0  0  0  0  0  0  0  0  0
   20.8248   19.8335   19.9973 C   0  0  0  0  0  0  0  0  0  0  0  0
   20.9304   19.7644   18.9069 H   0  0  0  0  0  0  0  0  0  0  0  0
   20.5611   20.8702   20.2435 H   0  0  0  0  0  0  0  0  0  0  0  0
   21.8054   19.6140   20.4375 H   0  0  0  0  0  0  0  0  0  0  0  0
  1  2  1  0  0  0  0
  1  3  1  0  0  0  0
  1  4  1  0  0  0  0
  1  5  1  0  0  0  0
  5  6  1  0  0  0  0
  5  7  1  0  0  0  0
  5  8  1  0  0  0  0
  8  9  1  0  0  0  0
  8 10  1  0  0  0  0
  8 11  1  0  0  0  0
 11 12  1  0  0  0  0
 11 13  1  0  0  0  0
 11 14  1  0  0  0  0
 14 15  1  0  0  0  0
 14 16  1  0  0  0  0
 14 17  1  0  0  0  0
 17 18  1  0  0  0  0
 17 19  1  0  0  0  0
 17 20  1  0  0  0  0
M  END
> <VM2 Rank>
9

> <Conf_Id>
96

> <Probability>
4.03

> <Sum Probability>
76.63

> <Delta G>
0.902

> <G>
27.907

> <E>
5.002

> <-TS>
22.906

> <U+W>
-11.095

> <U>
47.052

> <W>
-58.147

> <W(PB)>
-60.062

> <W(SA)>
1.915

> <Valence>
1.910

> <Coulomb>
44.625

> <VdW>
0.517

> <VdW6>
-4.612

> <VdW12>
5.129

> <Bond>
0.153

> <Angle>
0.652

> <Pdih>
1.104

> <Idih>
0.000

> <Tether>
0.000

$$$$
VeraChem MOL file


 20 19  0  0  0  0  0  0  0  0999 V2000     
   20.5941   18.4280   24.9659 N   0  3  0  0  0  0  0  0  0  0  0  0
   21.6063   18.5459   24.8581 H   0  0  0  0  0  0  0  0  0  0  0  0
   20.4140   18.2976   25.9669 H   0  0  0  0  0  0  0  0  0  0  0  0
   20.3401   17.5517   24.5003 H   0  0  0  0  0  0  0  0  0  0  0  0
   19.8250   19.6084   24.4047 C   0  0  0  0  0  0  0  0  0  0  0  0
   20.1163   20.4953   24.9741 H   0  0  0  0  0  0  0  0  0  0  0  0
   18.7595   19.4306   24.5737 H   0  0  0  0  0  0  0  0  0  0  0  0
   20.0776   19.8585   22.9051 C   0  0  0  0  0  0  0  0  0  0  0  0
   19.5573   20.7807   22.6141 H   0  0  0  0  0  0  0  0  0  0  0  0
   21.1484   20.0380   22.7461 H   0  0  0  0  0  0  0  0  0  0  0  0
   19.5867   18.6894   22.0149 C   0  0  0  0  0  0  0  0  0  0  0  0
   18.5404   18.4645   22.2643 H   0  0  0  0  0  0  0  0  0  0  0  0
   20.1608   17.7800   22.2372 H   0  0  0  0  0  0  0  0  0  0  0  0
   19.6776   18.9911   20.4993 C   0  0  0  0  0  0  0  0  0  0  0  0
   19.2193   18.1596   19.9457 H   0  0  0  0  0  0  0  0  0  0  0  0
   19.0819   19.8834   20.2611 H   0  0  0  0  0  0  0  0  0  0  0  0
   21.1270   19.1847   19.9982 C   0  0  0  0  0  0  0  0  0  0  0  0
   21.5897   20.0773   20.4371 H   0  0  0  0  0  0  0  0  0  0  0  0
   21.7505   18.3161   20.2468 H   0  0  0  0  0  0  0  0  0  0  0  0
   21.1432   19.3077   18.9075 H   0  0  0  0  0  0  0  0  0  0  0  0
  1  2  1  0  0  0  0
  1  3  1  0  0  0  0
  1  4  1  0  0  0  0
  1  5  1  0  0  0  0
  5  6  1  0  0  0  0
  5  7  1  0  0  0  0
  5  8  1  0  0  0  0
  8  9  1  0  0  0  0
  8 10  1  0  0  0  0
  8 11  1  0  0  0  0
 11 12  1  0  0  0  0
 11 13  1  0  0  0  0
 11 14  1  0  0  0  0
 14 15  1  0  0  0  0
 14 16  1  0  0  0  0
 14 17  1  0  0  0  0
 17 18  1  0  0  0  0
 17 19  1  0  0  0  0
 17 20  1  0  0  0  0
M  END
> <VM2 Rank>
10

> <Conf_Id>
268

> <Probability>
3.88

> <Sum Probability>
80.51

> <Delta G>
0.925

> <G>
27.930

> <E>
5.024

> <-TS>
22.906

> <U+W>
-11.072

> <U>
47.052

> <W>
-58.124

> <W(PB)>
-60.036

> <W(SA)>
1.912

> <Valence>
1.910

> <Coulomb>
44.625

> <VdW>
0.517

> <VdW6>
-4.612

> <VdW12>
5.129

> <Bond>
0.153

> <Angle>
0.652

> <Pdih>
1.104

> <Idih>
0.000

> <Tether>
0.000

$$$$
VeraChem MOL file


 20 19  0  0  0  0  0  0  0  0999 V2000     
   19.9272   19.7543   25.1737 N   0  3  0  0  0  0  0  0  0  0  0  0
   19.4492   19.0290   25.7175 H   0  0  0  0  0  0  0  0  0  0  0  0
   20.6501   20.1534   25.7816 H   0  0  0  0  0  0  0  0  0  0  0  0
   19.2440   20.4974   24.9968 H   0  0  0  0  0  0  0  0  0  0  0  0
   20.5124   19.2049   23.8884 C   0  0  0  0  0  0  0  0  0  0  0  0
   21.2499   18.4420   24.1517 H   0  0  0  0  0  0  0  0  0  0  0  0
   21.0296   20.0221   23.3787 H   0  0  0  0  0  0  0  0  0  0  0  0
   19.4513   18.5978   22.9513 C   0  0  0  0  0  0  0  0  0  0  0  0
   18.9100   17.8065   23.4867 H   0  0  0  0  0  0  0  0  0  0  0  0
   18.7053   19.3604   22.6936 H   0  0  0  0  0  0  0  0  0  0  0  0
   20.0639   17.9984   21.6607 C   0  0  0  0  0  0  0  0  0  0  0  0
   19.2571   17.5743   21.0472 H   0  0  0  0  0  0  0  0  0  0  0  0
   20.7122   17.1538   21.9327 H   0  0  0  0  0  0  0  0  0  0  0  0
   20.8811   18.9981   20.8029 C   0  0  0  0  0  0  0  0  0  0  0  0
   21.7555   19.3541   21.3645 H   0  0  0  0  0  0  0  0  0  0  0  0
   21.2813   18.4645   19.9294 H   0  0  0  0  0  0  0  0  0  0  0  0
   20.0522   20.2065   20.3110 C   0  0  0  0  0  0  0  0  0  0  0  0
   19.1598   19.8766   19.7634 H   0  0  0  0  0  0  0  0  0  0  0  0
   19.7288   20.8399   21.1464 H   0  0  0  0  0  0  0  0  0  0  0  0
   20.6487   20.8321   19.6345 H   0  0  0  0  0  0  0  0  0  0  0  0
  1  2  1  0  0  0  0
  1  3  1  0  0  0  0
  1  4  1  0  0  0  0
  1  5  1  0  0  0  0
  5  6  1  0  0  0  0
  5  7  1  0  0  0  0
  5  8  1  0  0  0  0
  8  9  1  0  0  0  0
  8 10  1  0  0  0  0
  8 11  1  0  0  0  0
 11 12  1  0  0  0  0
 11 13  1  0  0  0  0
 11 14  1  0  0  0  0
 14 15  1  0  0  0  0
 14 16  1  0  0  0  0
 14 17  1  0  0  0  0
 17 18  1  0  0  0  0
 17 19  1  0  0  0  0
 17 20  1  0  0  0  0
M  END
> <VM2 Rank>
11

> <Conf_Id>
107

> <Probability>
3.25

> <Sum Probability>
83.76

> <Delta G>
1.032

> <G>
28.037

> <E>
5.023

> <-TS>
23.014

> <U+W>
-11.074

> <U>
47.078

> <W>
-58.151

> <W(PB)>
-60.058

> <W(SA)>
1.906

> <Valence>
2.039

> <Coulomb>
44.655

> <VdW>
0.383

> <VdW6>
-4.912

> <VdW12>
5.295

> <Bond>
0.159

> <Angle>
0.856

> <Pdih>
1.024

> <Idih>
0.000

> <Tether>
0.000

$$$$
VeraChem MOL file


 20 19  0  0  0  0  0  0  0  0999 V2000     
   19.7505   18.5919   25.1484 N   0  3  0  0  0  0  0  0  0  0  0  0
   18.7437   18.7794   25.1851 H   0  0  0  0  0  0  0  0  0  0  0  0
   19.8699   17.6559   24.7502 H   0  0  0  0  0  0  0  0  0  0  0  0
   20.0808   18.5479   26.1182 H   0  0  0  0  0  0  0  0  0  0  0  0
   20.4926   19.6454   24.3487 C   0  0  0  0  0  0  0  0  0  0  0  0
   21.5579   19.3999   24.3688 H   0  0  0  0  0  0  0  0  0  0  0  0
   20.3552   20.6037   24.8570 H   0  0  0  0  0  0  0  0  0  0  0  0
   20.0169   19.7710   22.8879 C   0  0  0  0  0  0  0  0  0  0  0  0
   18.9432   20.0003   22.8707 H   0  0  0  0  0  0  0  0  0  0  0  0
   20.5288   20.6307   22.4381 H   0  0  0  0  0  0  0  0  0  0  0  0
   20.3020   18.4965   22.0539 C   0  0  0  0  0  0  0  0  0  0  0  0
   19.8177   17.6330   22.5287 H   0  0  0  0  0  0  0  0  0  0  0  0
   21.3805   18.2864   22.0568 H   0  0  0  0  0  0  0  0  0  0  0  0
   19.7977   18.5902   20.5931 C   0  0  0  0  0  0  0  0  0  0  0  0
   19.9353   17.6127   20.1098 H   0  0  0  0  0  0  0  0  0  0  0  0
   18.7164   18.7867   20.5847 H   0  0  0  0  0  0  0  0  0  0  0  0
   20.5283   19.6650   19.7560 C   0  0  0  0  0  0  0  0  0  0  0  0
   21.6148   19.5091   19.7741 H   0  0  0  0  0  0  0  0  0  0  0  0
   20.2015   19.6238   18.7089 H   0  0  0  0  0  0  0  0  0  0  0  0
   20.3193   20.6764   20.1258 H   0  0  0  0  0  0  0  0  0  0  0  0
  1  2  1  0  0  0  0
  1  3  1  0  0  0  0
  1  4  1  0  0  0  0
  1  5  1  0  0  0  0
  5  6  1  0  0  0  0
  5  7  1  0  0  0  0
  5  8  1  0  0  0  0
  8  9  1  0  0  0  0
  8 10  1  0  0  0  0
  8 11  1  0  0  0  0
 11 12  1  0  0  0  0
 11 13  1  0  0  0  0
 11 14  1  0  0  0  0
 14 15  1  0  0  0  0
 14 16  1  0  0  0  0
 14 17  1  0  0  0  0
 17 18  1  0  0  0  0
 17 19  1  0  0  0  0
 17 20  1  0  0  0  0
M  END
> <VM2 Rank>
12

> <Conf_Id>
287

> <Probability>
3.20

> <Sum Probability>
86.96

> <Delta G>
1.039

> <G>
28.045

> <E>
5.164

> <-TS>
22.881

> <U+W>
-10.933

> <U>
47.080

> <W>
-58.012

> <W(PB)>
-59.915

> <W(SA)>
1.903

> <Valence>
1.943

> <Coulomb>
44.572

> <VdW>
0.565

> <VdW6>
-4.575

> <VdW12>
5.139

> <Bond>
0.158

> <Angle>
0.700

> <Pdih>
1.085

> <Idih>
0.000

> <Tether>
0.000

$$$$
VeraChem MOL file


 20 19  0  0  0  0  0  0  0  0999 V2000     
   20.5228   19.9297   24.7151 N   0  3  0  0  0  0  0  0  0  0  0  0
   21.0690   20.3998   23.9872 H   0  0  0  0  0  0  0  0  0  0  0  0
   20.1682   20.6591   25.3425 H   0  0  0  0  0  0  0  0  0  0  0  0
   21.1744   19.3576   25.2612 H   0  0  0  0  0  0  0  0  0  0  0  0
   19.3999   19.0986   24.1256 C   0  0  0  0  0  0  0  0  0  0  0  0
   18.7283   19.7704   23.5849 H   0  0  0  0  0  0  0  0  0  0  0  0
   18.8410   18.6581   24.9557 H   0  0  0  0  0  0  0  0  0  0  0  0
   19.8854   17.9769   23.1845 C   0  0  0  0  0  0  0  0  0  0  0  0
   20.5218   17.2837   23.7505 H   0  0  0  0  0  0  0  0  0  0  0  0
   19.0157   17.3930   22.8550 H   0  0  0  0  0  0  0  0  0  0  0  0
   20.6596   18.4849   21.9421 C   0  0  0  0  0  0  0  0  0  0  0  0
   20.9826   17.6159   21.3523 H   0  0  0  0  0  0  0  0  0  0  0  0
   21.5787   18.9967   22.2574 H   0  0  0  0  0  0  0  0  0  0  0  0
   19.8208   19.4232   21.0422 C   0  0  0  0  0  0  0  0  0  0  0  0
   18.8914   18.9178   20.7445 H   0  0  0  0  0  0  0  0  0  0  0  0
   19.5277   20.3228   21.6001 H   0  0  0  0  0  0  0  0  0  0  0  0
   20.5995   19.8468   19.7785 C   0  0  0  0  0  0  0  0  0  0  0  0
   21.5200   20.3833   20.0430 H   0  0  0  0  0  0  0  0  0  0  0  0
   20.8750   18.9736   19.1727 H   0  0  0  0  0  0  0  0  0  0  0  0
   19.9904   20.5117   19.1525 H   0  0  0  0  0  0  0  0  0  0  0  0
  1  2  1  0  0  0  0
  1  3  1  0  0  0  0
  1  4  1  0  0  0  0
  1  5  1  0  0  0  0
  5  6  1  0  0  0  0
  5  7  1  0  0  0  0
  5  8  1  0  0  0  0
  8  9  1  0  0  0  0
  8 10  1  0  0  0  0
  8 11  1  0  0  0  0
 11 12  1  0  0  0  0
 11 13  1  0  0  0  0
 11 14  1  0  0  0  0
 14 15  1  0  0  0  0
 14 16  1  0  0  0  0
 14 17  1  0  0  0  0
 17 18  1  0  0  0  0
 17 19  1  0  0  0  0
 17 20  1  0  0  0  0
M  END
> <VM2 Rank>
13

> <Conf_Id>
145

> <Probability>
3.13

> <Sum Probability>
90.09

> <Delta G>
1.053

> <G>
28.058

> <E>
5.091

> <-TS>
22.967

> <U+W>
-11.006

> <U>
47.126

> <W>
-58.132

> <W(PB)>
-60.041

> <W(SA)>
1.910

> <Valence>
1.704

> <Coulomb>
45.050

> <VdW>
0.372

> <VdW6>
-4.760

> <VdW12>
5.132

> <Bond>
0.143

> <Angle>
0.634

> <Pdih>
0.927

> <Idih>
0.000

> <Tether>
0.000

$$$$
VeraChem MOL file


 20 19  0  0  0  0  0  0  0  0999 V2000     
   20.4831   18.5589   25.1752 N   0  3  0  0  0  0  0  0  0  0  0  0
   21.2536   18.8559   25.7832 H   0  0  0  0  0  0  0  0  0  0  0  0
   19.6199   18.6618   25.7180 H   0  0  0  0  0  0  0  0  0  0  0  0
   20.6115   17.5573   25.0004 H   0  0  0  0  0  0  0  0  0  0  0  0
   20.4412   19.3578   23.8882 C   0  0  0  0  0  0  0  0  0  0  0  0
   21.3999   19.2259   23.3797 H   0  0  0  0  0  0  0  0  0  0  0  0
   20.3328   20.4140   24.1493 H   0  0  0  0  0  0  0  0  0  0  0  0
   19.2942   18.9357   22.9508 C   0  0  0  0  0  0  0  0  0  0  0  0
   19.3970   17.8733   22.6954 H   0  0  0  0  0  0  0  0  0  0  0  0
   18.3398   19.0326   23.4852 H   0  0  0  0  0  0  0  0  0  0  0  0
   19.2317   19.7877   21.6585 C   0  0  0  0  0  0  0  0  0  0  0  0
   19.0033   20.8282   21.9282 H   0  0  0  0  0  0  0  0  0  0  0  0
   18.3881   19.4427   21.0448 H   0  0  0  0  0  0  0  0  0  0  0  0
   20.5236   19.7667   20.8019 C   0  0  0  0  0  0  0  0  0  0  0  0
   20.3742   20.4148   19.9269 H   0  0  0  0  0  0  0  0  0  0  0  0
   21.3587   20.2073   21.3634 H   0  0  0  0  0  0  0  0  0  0  0  0
   20.9141   18.3532   20.3134 C   0  0  0  0  0  0  0  0  0  0  0  0
   20.0874   17.8822   19.7659 H   0  0  0  0  0  0  0  0  0  0  0  0
   21.7776   18.4049   19.6376 H   0  0  0  0  0  0  0  0  0  0  0  0
   21.1894   17.6995   21.1503 H   0  0  0  0  0  0  0  0  0  0  0  0
  1  2  1  0  0  0  0
  1  3  1  0  0  0  0
  1  4  1  0  0  0  0
  1  5  1  0  0  0  0
  5  6  1  0  0  0  0
  5  7  1  0  0  0  0
  5  8  1  0  0  0  0
  8  9  1  0  0  0  0
  8 10  1  0  0  0  0
  8 11  1  0  0  0  0
 11 12  1  0  0  0  0
 11 13  1  0  0  0  0
 11 14  1  0  0  0  0
 14 15  1  0  0  0  0
 14 16  1  0  0  0  0
 14 17  1  0  0  0  0
 17 18  1  0  0  0  0
 17 19  1  0  0  0  0
 17 20  1  0  0  0  0
M  END
> <VM2 Rank>
14

> <Conf_Id>
222

> <Probability>
3.11

> <Sum Probability>
93.21

> <Delta G>
1.056

> <G>
28.062

> <E>
5.047

> <-TS>
23.014

> <U+W>
-11.049

> <U>
47.077

> <W>
-58.127

> <W(PB)>
-60.031

> <W(SA)>
1.905

> <Valence>
2.039

> <Coulomb>
44.655

> <VdW>
0.383

> <VdW6>
-4.912

> <VdW12>
5.295

> <Bond>
0.159

> <Angle>
0.856

> <Pdih>
1.024

> <Idih>
0.000

> <Tether>
0.000

$$$$
VeraChem MOL file


 20 19  0  0  0  0  0  0  0  0999 V2000     
   21.0017   18.9020   24.7164 N   0  3  0  0  0  0  0  0  0  0  0  0
   20.9821   19.7701   25.2607 H   0  0  0  0  0  0  0  0  0  0  0  0
   21.3315   18.1628   25.3458 H   0  0  0  0  0  0  0  0  0  0  0  0
   21.7137   19.0165   23.9890 H   0  0  0  0  0  0  0  0  0  0  0  0
   19.6437   18.5754   24.1263 C   0  0  0  0  0  0  0  0  0  0  0  0
   18.9461   18.4324   24.9560 H   0  0  0  0  0  0  0  0  0  0  0  0
   19.7268   17.6280   23.5876 H   0  0  0  0  0  0  0  0  0  0  0  0
   19.0979   19.6666   23.1823 C   0  0  0  0  0  0  0  0  0  0  0  0
   18.0918   19.3754   22.8524 H   0  0  0  0  0  0  0  0  0  0  0  0
   18.9759   20.6009   23.7462 H   0  0  0  0  0  0  0  0  0  0  0  0
   19.9861   19.9300   21.9402 C   0  0  0  0  0  0  0  0  0  0  0  0
   20.9688   20.3053   22.2556 H   0  0  0  0  0  0  0  0  0  0  0  0
   19.5290   20.7350   21.3482 H   0  0  0  0  0  0  0  0  0  0  0  0
   20.1660   18.6824   21.0431 C   0  0  0  0  0  0  0  0  0  0  0  0
   20.6657   17.8805   21.6033 H   0  0  0  0  0  0  0  0  0  0  0  0
   19.1815   18.2952   20.7452 H   0  0  0  0  0  0  0  0  0  0  0  0
   20.9925   19.0035   19.7796 C   0  0  0  0  0  0  0  0  0  0  0  0
   21.9952   19.3637   20.0444 H   0  0  0  0  0  0  0  0  0  0  0  0
   21.1105   18.1081   19.1556 H   0  0  0  0  0  0  0  0  0  0  0  0
   20.5018   19.7748   19.1717 H   0  0  0  0  0  0  0  0  0  0  0  0
  1  2  1  0  0  0  0
  1  3  1  0  0  0  0
  1  4  1  0  0  0  0
  1  5  1  0  0  0  0
  5  6  1  0  0  0  0
  5  7  1  0  0  0  0
  5  8  1  0  0  0  0
  8  9  1  0  0  0  0
  8 10  1  0  0  0  0
  8 11  1  0  0  0  0
 11 12  1  0  0  0  0
 11 13  1  0  0  0  0
 11 14  1  0  0  0  0
 14 15  1  0  0  0  0
 14 16  1  0  0  0  0
 14 17  1  0  0  0  0
 17 18  1  0  0  0  0
 17 19  1  0  0  0  0
 17 20  1  0  0  0  0
M  END
> <VM2 Rank>
15

> <Conf_Id>
104

> <Probability>
3.10

> <Sum Probability>
96.30

> <Delta G>
1.060

> <G>
28.065

> <E>
5.098

> <-TS>
22.967

> <U+W>
-10.999

> <U>
47.126

> <W>
-58.124

> <W(PB)>
-60.036

> <W(SA)>
1.911

> <Valence>
1.704

> <Coulomb>
45.050

> <VdW>
0.372

> <VdW6>
-4.760

> <VdW12>
5.133

> <Bond>
0.144

> <Angle>
0.634

> <Pdih>
0.927

> <Idih>
0.000

> <Tether>
0.000

$$$$
VeraChem MOL file


 20 19  0  0  0  0  0  0  0  0999 V2000     
   19.3250   19.3699   24.7368 N   0  3  0  0  0  0  0  0  0  0  0  0
   19.4602   18.5624   25.3530 H   0  0  0  0  0  0  0  0  0  0  0  0
   19.0713   20.1629   25.3353 H   0  0  0  0  0  0  0  0  0  0  0  0
   18.5130   19.1674   24.1464 H   0  0  0  0  0  0  0  0  0  0  0  0
   20.5617   19.6610   23.9094 C   0  0  0  0  0  0  0  0  0  0  0  0
   21.3761   19.8976   24.5996 H   0  0  0  0  0  0  0  0  0  0  0  0
   20.3635   20.5482   23.3023 H   0  0  0  0  0  0  0  0  0  0  0  0
   20.9868   18.4919   22.9980 C   0  0  0  0  0  0  0  0  0  0  0  0
   21.9266   18.7573   22.4971 H   0  0  0  0  0  0  0  0  0  0  0  0
   21.2161   17.6165   23.6200 H   0  0  0  0  0  0  0  0  0  0  0  0
   19.9241   18.1004   21.9376 C   0  0  0  0  0  0  0  0  0  0  0  0
   19.0437   17.6811   22.4429 H   0  0  0  0  0  0  0  0  0  0  0  0
   20.3260   17.2869   21.3180 H   0  0  0  0  0  0  0  0  0  0  0  0
   19.4686   19.2596   21.0147 C   0  0  0  0  0  0  0  0  0  0  0  0
   18.7050   18.8776   20.3227 H   0  0  0  0  0  0  0  0  0  0  0  0
   18.9754   20.0441   21.6045 H   0  0  0  0  0  0  0  0  0  0  0  0
   20.6218   19.8772   20.1915 C   0  0  0  0  0  0  0  0  0  0  0  0
   21.1428   19.1098   19.6045 H   0  0  0  0  0  0  0  0  0  0  0  0
   20.2350   20.6295   19.4920 H   0  0  0  0  0  0  0  0  0  0  0  0
   21.3565   20.3741   20.8372 H   0  0  0  0  0  0  0  0  0  0  0  0
  1  2  1  0  0  0  0
  1  3  1  0  0  0  0
  1  4  1  0  0  0  0
  1  5  1  0  0  0  0
  5  6  1  0  0  0  0
  5  7  1  0  0  0  0
  5  8  1  0  0  0  0
  8  9  1  0  0  0  0
  8 10  1  0  0  0  0
  8 11  1  0  0  0  0
 11 12  1  0  0  0  0
 11 13  1  0  0  0  0
 11 14  1  0  0  0  0
 14 15  1  0  0  0  0
 14 16  1  0  0  0  0
 14 17  1  0  0  0  0
 17 18  1  0  0  0  0
 17 19  1  0  0  0  0
 17 20  1  0  0  0  0
M  END
> <VM2 Rank>
16

> <Conf_Id>
70

> <Probability>
1.42

> <Sum Probability>
97.73

> <Delta G>
1.524

> <G>
28.529

> <E>
5.312

> <-TS>
23.217

> <U+W>
-10.784

> <U>
47.562

> <W>
-58.346

> <W(PB)>
-60.221

> <W(SA)>
1.875

> <Valence>
2.149

> <Coulomb>
45.034

> <VdW>
0.378

> <VdW6>
-5.598

> <VdW12>
5.977

> <Bond>
0.185

> <Angle>
0.935

> <Pdih>
1.028

> <Idih>
0.000

> <Tether>
0.000

$$$$
VeraChem MOL file


 20 19  0  0  0  0  0  0  0  0999 V2000     
   19.8008   18.3453   24.7379 N   0  3  0  0  0  0  0  0  0  0  0  0
   19.2706   18.9707   25.3525 H   0  0  0  0  0  0  0  0  0  0  0  0
   19.1227   17.8545   24.1477 H   0  0  0  0  0  0  0  0  0  0  0  0
   20.2424   17.6409   25.3380 H   0  0  0  0  0  0  0  0  0  0  0  0
   20.8219   19.1009   23.9100 C   0  0  0  0  0  0  0  0  0  0  0  0
   21.3724   18.3760   23.3048 H   0  0  0  0  0  0  0  0  0  0  0  0
   21.5274   19.5718   24.6000 H   0  0  0  0  0  0  0  0  0  0  0  0
   20.2036   20.1782   22.9960 C   0  0  0  0  0  0  0  0  0  0  0  0
   19.6822   20.9193   23.6161 H   0  0  0  0  0  0  0  0  0  0  0  0
   21.0132   20.7240   22.4948 H   0  0  0  0  0  0  0  0  0  0  0  0
   19.2199   19.6168   21.9358 C   0  0  0  0  0  0  0  0  0  0  0  0
   18.8583   20.4474   21.3141 H   0  0  0  0  0  0  0  0  0  0  0  0
   18.3310   19.2157   22.4410 H   0  0  0  0  0  0  0  0  0  0  0  0
   19.8125   18.5189   21.0157 C   0  0  0  0  0  0  0  0  0  0  0  0
   20.0930   17.6371   21.6075 H   0  0  0  0  0  0  0  0  0  0  0  0
   19.0287   18.1807   20.3236 H   0  0  0  0  0  0  0  0  0  0  0  0
   21.0292   18.9999   20.1927 C   0  0  0  0  0  0  0  0  0  0  0  0
   20.7797   19.8919   19.6037 H   0  0  0  0  0  0  0  0  0  0  0  0
   21.8823   19.2418   20.8388 H   0  0  0  0  0  0  0  0  0  0  0  0
   21.3551   18.2175   19.4951 H   0  0  0  0  0  0  0  0  0  0  0  0
  1  2  1  0  0  0  0
  1  3  1  0  0  0  0
  1  4  1  0  0  0  0
  1  5  1  0  0  0  0
  5  6  1  0  0  0  0
  5  7  1  0  0  0  0
  5  8  1  0  0  0  0
  8  9  1  0  0  0  0
  8 10  1  0  0  0  0
  8 11  1  0  0  0  0
 11 12  1  0  0  0  0
 11 13  1  0  0  0  0
 11 14  1  0  0  0  0
 14 15  1  0  0  0  0
 14 16  1  0  0  0  0
 14 17  1  0  0  0  0
 17 18  1  0  0  0  0
 17 19  1  0  0  0  0
 17 20  1  0  0  0  0
M  END
> <VM2 Rank>
17

> <Conf_Id>
89

> <Probability>
1.34

> <Sum Probability>
99.07

> <Delta G>
1.559

> <G>
28.565

> <E>
5.347

> <-TS>
23.218

> <U+W>
-10.749

> <U>
47.562

> <W>
-58.307

> <W(PB)>
-60.184

> <W(SA)>
1.877

> <Valence>
2.149

> <Coulomb>
45.035

> <VdW>
0.378

> <VdW6>
-5.599

> <VdW12>
5.977

> <Bond>
0.185

> <Angle>
0.935

> <Pdih>
1.029

> <Idih>
0.000

> <Tether>
0.000

$$$$
VeraChem MOL file


 20 19  0  0  0  0  0  0  0  0999 V2000     
   20.4973   18.6695   25.2001 N   0  3  0  0  0  0  0  0  0  0  0  0
   21.4154   18.4425   25.5966 H   0  0  0  0  0  0  0  0  0  0  0  0
   20.1100   19.4316   25.7655 H   0  0  0  0  0  0  0  0  0  0  0  0
   19.8990   17.8508   25.3480 H   0  0  0  0  0  0  0  0  0  0  0  0
   20.5933   19.0437   23.7347 C   0  0  0  0  0  0  0  0  0  0  0  0
   21.0393   18.1986   23.2053 H   0  0  0  0  0  0  0  0  0  0  0  0
   21.2645   19.9023   23.6479 H   0  0  0  0  0  0  0  0  0  0  0  0
   19.2297   19.3850   23.1079 C   0  0  0  0  0  0  0  0  0  0  0  0
   18.5797   18.5007   23.1426 H   0  0  0  0  0  0  0  0  0  0  0  0
   18.7412   20.1531   23.7221 H   0  0  0  0  0  0  0  0  0  0  0  0
   19.3208   19.9068   21.6513 C   0  0  0  0  0  0  0  0  0  0  0  0
   19.9220   20.8258   21.6149 H   0  0  0  0  0  0  0  0  0  0  0  0
   18.3083   20.2024   21.3431 H   0  0  0  0  0  0  0  0  0  0  0  0
   19.8535   18.8774   20.6209 C   0  0  0  0  0  0  0  0  0  0  0  0
   19.4946   17.8687   20.8691 H   0  0  0  0  0  0  0  0  0  0  0  0
   19.4221   19.1177   19.6390 H   0  0  0  0  0  0  0  0  0  0  0  0
   21.3933   18.8776   20.4730 C   0  0  0  0  0  0  0  0  0  0  0  0
   21.6998   18.1910   19.6733 H   0  0  0  0  0  0  0  0  0  0  0  0
   21.7636   19.8773   20.2114 H   0  0  0  0  0  0  0  0  0  0  0  0
   21.8992   18.5569   21.3896 H   0  0  0  0  0  0  0  0  0  0  0  0
  1  2  1  0  0  0  0
  1  3  1  0  0  0  0
  1  4  1  0  0  0  0
  1  5  1  0  0  0  0
  5  6  1  0  0  0  0
  5  7  1  0  0  0  0
  5  8  1  0  0  0  0
  8  9  1  0  0  0  0
  8 10  1  0  0  0  0
  8 11  1  0  0  0  0
 11 12  1  0  0  0  0
 11 13  1  0  0  0  0
 11 14  1  0  0  0  0
 14 15  1  0  0  0  0
 14 16  1  0  0  0  0
 14 17  1  0  0  0  0
 17 18  1  0  0  0  0
 17 19  1  0  0  0  0
 17 20  1  0  0  0  0
M  END
> <VM2 Rank>
18

> <Conf_Id>
236

> <Probability>
0.22

> <Sum Probability>
99.29

> <Delta G>
2.634

> <G>
29.640

> <E>
6.955

> <-TS>
22.685

> <U+W>
-9.141

> <U>
48.916

> <W>
-58.057

> <W(PB)>
-59.981

> <W(SA)>
1.924

> <Valence>
3.785

> <Coulomb>
44.716

> <VdW>
0.415

> <VdW6>
-4.836

> <VdW12>
5.251

> <Bond>
0.175

> <Angle>
1.196

> <Pdih>
2.414

> <Idih>
0.000

> <Tether>
0.000

$$$$
VeraChem MOL file


 20 19  0  0  0  0  0  0  0  0999 V2000     
   20.0213   19.6940   25.1988 N   0  3  0  0  0  0  0  0  0  0  0  0
   20.3534   18.9077   25.7661 H   0  0  0  0  0  0  0  0  0  0  0  0
   20.4394   20.5428   25.5940 H   0  0  0  0  0  0  0  0  0  0  0  0
   19.0095   19.7650   25.3456 H   0  0  0  0  0  0  0  0  0  0  0  0
   20.3705   19.5230   23.7341 C   0  0  0  0  0  0  0  0  0  0  0  0
   21.4598   19.4822   23.6485 H   0  0  0  0  0  0  0  0  0  0  0  0
   20.0128   20.4077   23.2025 H   0  0  0  0  0  0  0  0  0  0  0  0
   19.7528   18.2595   23.1092 C   0  0  0  0  0  0  0  0  0  0  0  0
   20.0242   17.3920   23.7255 H   0  0  0  0  0  0  0  0  0  0  0  0
   18.6577   18.3330   23.1429 H   0  0  0  0  0  0  0  0  0  0  0  0
   20.2116   17.9897   21.6537 C   0  0  0  0  0  0  0  0  0  0  0  0
   19.7849   17.0246   21.3470 H   0  0  0  0  0  0  0  0  0  0  0  0
   21.3017   17.8566   21.6186 H   0  0  0  0  0  0  0  0  0  0  0  0
   19.7693   19.0587   20.6207 C   0  0  0  0  0  0  0  0  0  0  0  0
   19.6756   18.5720   19.6397 H   0  0  0  0  0  0  0  0  0  0  0  0
   18.7667   19.4353   20.8672 H   0  0  0  0  0  0  0  0  0  0  0  0
   20.7625   20.2351   20.4714 C   0  0  0  0  0  0  0  0  0  0  0  0
   20.8429   20.8303   21.3869 H   0  0  0  0  0  0  0  0  0  0  0  0
   21.7656   19.8729   20.2113 H   0  0  0  0  0  0  0  0  0  0  0  0
   20.4361   20.9106   19.6701 H   0  0  0  0  0  0  0  0  0  0  0  0
  1  2  1  0  0  0  0
  1  3  1  0  0  0  0
  1  4  1  0  0  0  0
  1  5  1  0  0  0  0
  5  6  1  0  0  0  0
  5  7  1  0  0  0  0
  5  8  1  0  0  0  0
  8  9  1  0  0  0  0
  8 10  1  0  0  0  0
  8 11  1  0  0  0  0
 11 12  1  0  0  0  0
 11 13  1  0  0  0  0
 11 14  1  0  0  0  0
 14 15  1  0  0  0  0
 14 16  1  0  0  0  0
 14 17  1  0  0  0  0
 17 18  1  0  0  0  0
 17 19  1  0  0  0  0
 17 20  1  0  0  0  0
M  END
> <VM2 Rank>
19

> <Conf_Id>
318

> <Probability>
0.21

> <Sum Probability>
99.50

> <Delta G>
2.665

> <G>
29.671

> <E>
6.986

> <-TS>
22.685

> <U+W>
-9.111

> <U>
48.916

> <W>
-58.027

> <W(PB)>
-59.936

> <W(SA)>
1.909

> <Valence>
3.785

> <Coulomb>
44.716

> <VdW>
0.415

> <VdW6>
-4.836

> <VdW12>
5.251

> <Bond>
0.175

> <Angle>
1.196

> <Pdih>
2.414

> <Idih>
0.000

> <Tether>
0.000

$$$$
VeraChem MOL file


 20 19  0  0  0  0  0  0  0  0999 V2000     
   18.9506   19.5069   24.3938 N   0  3  0  0  0  0  0  0  0  0  0  0
   18.5749   19.8376   23.5013 H   0  0  0  0  0  0  0  0  0  0  0  0
   18.4532   18.6424   24.6297 H   0  0  0  0  0  0  0  0  0  0  0  0
   18.6936   20.2003   25.1042 H   0  0  0  0  0  0  0  0  0  0  0  0
   20.4511   19.2940   24.3336 C   0  0  0  0  0  0  0  0  0  0  0  0
   20.7644   18.9562   25.3253 H   0  0  0  0  0  0  0  0  0  0  0  0
   20.9322   20.2559   24.1370 H   0  0  0  0  0  0  0  0  0  0  0  0
   20.9052   18.2570   23.2849 C   0  0  0  0  0  0  0  0  0  0  0  0
   21.8931   17.8860   23.5887 H   0  0  0  0  0  0  0  0  0  0  0  0
   20.2378   17.3852   23.3040 H   0  0  0  0  0  0  0  0  0  0  0  0
   21.0297   18.8110   21.8422 C   0  0  0  0  0  0  0  0  0  0  0  0
   21.4671   18.0250   21.2110 H   0  0  0  0  0  0  0  0  0  0  0  0
   21.7451   19.6449   21.8307 H   0  0  0  0  0  0  0  0  0  0  0  0
   19.6929   19.2696   21.2137 C   0  0  0  0  0  0  0  0  0  0  0  0
   18.9390   18.4768   21.3186 H   0  0  0  0  0  0  0  0  0  0  0  0
   19.3134   20.1539   21.7407 H   0  0  0  0  0  0  0  0  0  0  0  0
   19.8584   19.6215   19.7198 C   0  0  0  0  0  0  0  0  0  0  0  0
   20.2000   18.7515   19.1438 H   0  0  0  0  0  0  0  0  0  0  0  0
   18.9039   19.9540   19.2916 H   0  0  0  0  0  0  0  0  0  0  0  0
   20.5885   20.4299   19.5831 H   0  0  0  0  0  0  0  0  0  0  0  0
  1  2  1  0  0  0  0
  1  3  1  0  0  0  0
  1  4  1  0  0  0  0
  1  5  1  0  0  0  0
  5  6  1  0  0  0  0
  5  7  1  0  0  0  0
  5  8  1  0  0  0  0
  8  9  1  0  0  0  0
  8 10  1  0  0  0  0
  8 11  1  0  0  0  0
 11 12  1  0  0  0  0
 11 13  1  0  0  0  0
 11 14  1  0  0  0  0
 14 15  1  0  0  0  0
 14 16  1  0  0  0  0
 14 17  1  0  0  0  0
 17 18  1  0  0  0  0
 17 19  1  0  0  0  0
 17 20  1  0  0  0  0
M  END
> <VM2 Rank>
20

> <Conf_Id>
71

> <Probability>
0.14

> <Sum Probability>
99.63

> <Delta G>
2.925

> <G>
29.931

> <E>
7.127

> <-TS>
22.804

> <U+W>
-8.969

> <U>
49.216

> <W>
-58.185

> <W(PB)>
-60.088

> <W(SA)>
1.903

> <Valence>
2.929

> <Coulomb>
46.006

> <VdW>
0.281

> <VdW6>
-4.909

> <VdW12>
5.190

> <Bond>
0.156

> <Angle>
0.974

> <Pdih>
1.799

> <Idih>
0.000

> <Tether>
0.000

$$$$
VeraChem MOL file


 20 19  0  0  0  0  0  0  0  0999 V2000     
   19.6642   17.9703   24.3956 N   0  3  0  0  0  0  0  0  0  0  0  0
   18.6826   18.1485   24.6303 H   0  0  0  0  0  0  0  0  0  0  0  0
   19.6753   17.4682   23.5041 H   0  0  0  0  0  0  0  0  0  0  0  0
   20.0275   17.3279   25.1077 H   0  0  0  0  0  0  0  0  0  0  0  0
   20.4697   19.2540   24.3337 C   0  0  0  0  0  0  0  0  0  0  0  0
   21.5152   19.0005   24.1385 H   0  0  0  0  0  0  0  0  0  0  0  0
   20.4128   19.7132   25.3244 H   0  0  0  0  0  0  0  0  0  0  0  0
   19.9714   20.2679   23.2825 C   0  0  0  0  0  0  0  0  0  0  0  0
   18.8747   20.3206   23.3005 H   0  0  0  0  0  0  0  0  0  0  0  0
   20.3250   21.2626   23.5847 H   0  0  0  0  0  0  0  0  0  0  0  0
   20.4763   20.0027   21.8408 C   0  0  0  0  0  0  0  0  0  0  0  0
   21.5750   20.0112   21.8303 H   0  0  0  0  0  0  0  0  0  0  0  0
   20.1586   20.8428   21.2077 H   0  0  0  0  0  0  0  0  0  0  0  0
   19.9647   18.6843   21.2144 C   0  0  0  0  0  0  0  0  0  0  0  0
   20.3949   17.8248   21.7435 H   0  0  0  0  0  0  0  0  0  0  0  0
   18.8725   18.6201   21.3183 H   0  0  0  0  0  0  0  0  0  0  0  0
   20.3418   18.5808   19.7210 C   0  0  0  0  0  0  0  0  0  0  0  0
   21.4306   18.6166   19.5853 H   0  0  0  0  0  0  0  0  0  0  0  0
   19.9803   17.6361   19.2943 H   0  0  0  0  0  0  0  0  0  0  0  0
   19.8981   19.4019   19.1430 H   0  0  0  0  0  0  0  0  0  0  0  0
  1  2  1  0  0  0  0
  1  3  1  0  0  0  0
  1  4  1  0  0  0  0
  1  5  1  0  0  0  0
  5  6  1  0  0  0  0
  5  7  1  0  0  0  0
  5  8  1  0  0  0  0
  8  9  1  0  0  0  0
  8 10  1  0  0  0  0
  8 11  1  0  0  0  0
 11 12  1  0  0  0  0
 11 13  1  0  0  0  0
 11 14  1  0  0  0  0
 14 15  1  0  0  0  0
 14 16  1  0  0  0  0
 14 17  1  0  0  0  0
 17 18  1  0  0  0  0
 17 19  1  0  0  0  0
 17 20  1  0  0  0  0
M  END
> <VM2 Rank>
21

> <Conf_Id>
65

> <Probability>
0.13

> <Sum Probability>
99.77

> <Delta G>
2.927

> <G>
29.933

> <E>
7.129

> <-TS>
22.803

> <U+W>
-8.967

> <U>
49.216

> <W>
-58.183

> <W(PB)>
-60.064

> <W(SA)>
1.881

> <Valence>
2.929

> <Coulomb>
46.006

> <VdW>
0.281

> <VdW6>
-4.909

> <VdW12>
5.190

> <Bond>
0.156

> <Angle>
0.974

> <Pdih>
1.799

> <Idih>
0.000

> <Tether>
0.000

$$$$
VeraChem MOL file


 20 19  0  0  0  0  0  0  0  0999 V2000     
   20.8336   18.6164   24.6872 N   0  3  0  0  0  0  0  0  0  0  0  0
   20.1091   18.2859   25.3322 H   0  0  0  0  0  0  0  0  0  0  0  0
   21.0984   17.8226   24.0969 H   0  0  0  0  0  0  0  0  0  0  0  0
   21.6533   18.8532   25.2559 H   0  0  0  0  0  0  0  0  0  0  0  0
   20.3595   19.7980   23.8633 C   0  0  0  0  0  0  0  0  0  0  0  0
   21.1855   20.1158   23.2251 H   0  0  0  0  0  0  0  0  0  0  0  0
   20.1375   20.6138   24.5567 H   0  0  0  0  0  0  0  0  0  0  0  0
   19.1060   19.5022   23.0125 C   0  0  0  0  0  0  0  0  0  0  0  0
   18.3043   19.1774   23.6890 H   0  0  0  0  0  0  0  0  0  0  0  0
   18.7512   20.4335   22.5518 H   0  0  0  0  0  0  0  0  0  0  0  0
   19.3054   18.4218   21.9155 C   0  0  0  0  0  0  0  0  0  0  0  0
   18.3196   17.9996   21.6761 H   0  0  0  0  0  0  0  0  0  0  0  0
   19.8967   17.5818   22.3020 H   0  0  0  0  0  0  0  0  0  0  0  0
   19.9221   18.9380   20.5899 C   0  0  0  0  0  0  0  0  0  0  0  0
   19.9267   18.1102   19.8670 H   0  0  0  0  0  0  0  0  0  0  0  0
   19.2749   19.7137   20.1572 H   0  0  0  0  0  0  0  0  0  0  0  0
   21.3614   19.4836   20.7195 C   0  0  0  0  0  0  0  0  0  0  0  0
   21.3784   20.4444   21.2474 H   0  0  0  0  0  0  0  0  0  0  0  0
   22.0098   18.7764   21.2526 H   0  0  0  0  0  0  0  0  0  0  0  0
   21.7962   19.6534   19.7260 H   0  0  0  0  0  0  0  0  0  0  0  0
  1  2  1  0  0  0  0
  1  3  1  0  0  0  0
  1  4  1  0  0  0  0
  1  5  1  0  0  0  0
  5  6  1  0  0  0  0
  5  7  1  0  0  0  0
  5  8  1  0  0  0  0
  8  9  1  0  0  0  0
  8 10  1  0  0  0  0
  8 11  1  0  0  0  0
 11 12  1  0  0  0  0
 11 13  1  0  0  0  0
 11 14  1  0  0  0  0
 14 15  1  0  0  0  0
 14 16  1  0  0  0  0
 14 17  1  0  0  0  0
 17 18  1  0  0  0  0
 17 19  1  0  0  0  0
 17 20  1  0  0  0  0
M  END
> <VM2 Rank>
22

> <Conf_Id>
121

> <Probability>
0.08

> <Sum Probability>
99.85

> <Delta G>
3.225

> <G>
30.230

> <E>
7.239

> <-TS>
22.991

> <U+W>
-8.857

> <U>
49.434

> <W>
-58.292

> <W(PB)>
-60.170

> <W(SA)>
1.879

> <Valence>
3.798

> <Coulomb>
45.253

> <VdW>
0.384

> <VdW6>
-5.595

> <VdW12>
5.979

> <Bond>
0.198

> <Angle>
1.369

> <Pdih>
2.231

> <Idih>
0.000

> <Tether>
0.000

$$$$
VeraChem MOL file


 20 19  0  0  0  0  0  0  0  0999 V2000     
   20.1979   19.9843   24.6855 N   0  3  0  0  0  0  0  0  0  0  0  0
   20.9069   20.4593   25.2538 H   0  0  0  0  0  0  0  0  0  0  0  0
   19.7625   20.6973   24.0933 H   0  0  0  0  0  0  0  0  0  0  0  0
   19.4776   19.6449   25.3305 H   0  0  0  0  0  0  0  0  0  0  0  0
   20.7962   18.8583   23.8645 C   0  0  0  0  0  0  0  0  0  0  0  0
   21.2759   18.1640   24.5598 H   0  0  0  0  0  0  0  0  0  0  0  0
   21.5723   19.2833   23.2262 H   0  0  0  0  0  0  0  0  0  0  0  0
   19.7626   18.0891   23.0143 C   0  0  0  0  0  0  0  0  0  0  0  0
   20.2462   17.2165   22.5558 H   0  0  0  0  0  0  0  0  0  0  0  0
   18.9969   17.6871   23.6908 H   0  0  0  0  0  0  0  0  0  0  0  0
   19.0665   18.9359   21.9149 C   0  0  0  0  0  0  0  0  0  0  0  0
   18.8052   19.9303   22.2991 H   0  0  0  0  0  0  0  0  0  0  0  0
   18.1084   18.4541   21.6755 H   0  0  0  0  0  0  0  0  0  0  0  0
   19.8600   19.0718   20.5897 C   0  0  0  0  0  0  0  0  0  0  0  0
   20.0360   18.0761   20.1593 H   0  0  0  0  0  0  0  0  0  0  0  0
   19.2308   19.6076   19.8651 H   0  0  0  0  0  0  0  0  0  0  0  0
   21.2048   19.8206   20.7191 C   0  0  0  0  0  0  0  0  0  0  0  0
   21.0817   20.7732   21.2502 H   0  0  0  0  0  0  0  0  0  0  0  0
   21.9498   19.2152   21.2489 H   0  0  0  0  0  0  0  0  0  0  0  0
   21.6158   20.0415   19.7256 H   0  0  0  0  0  0  0  0  0  0  0  0
  1  2  1  0  0  0  0
  1  3  1  0  0  0  0
  1  4  1  0  0  0  0
  1  5  1  0  0  0  0
  5  6  1  0  0  0  0
  5  7  1  0  0  0  0
  5  8  1  0  0  0  0
  8  9  1  0  0  0  0
  8 10  1  0  0  0  0
  8 11  1  0  0  0  0
 11 12  1  0  0  0  0
 11 13  1  0  0  0  0
 11 14  1  0  0  0  0
 14 15  1  0  0  0  0
 14 16  1  0  0  0  0
 14 17  1  0  0  0  0
 17 18  1  0  0  0  0
 17 19  1  0  0  0  0
 17 20  1  0  0  0  0
M  END
> <VM2 Rank>
23

> <Conf_Id>
227

> <Probability>
0.08

> <Sum Probability>
99.93

> <Delta G>
3.253

> <G>
30.259

> <E>
7.267

> <-TS>
22.991

> <U+W>
-8.829

> <U>
49.434

> <W>
-58.263

> <W(PB)>
-60.125

> <W(SA)>
1.862

> <Valence>
3.798

> <Coulomb>
45.253

> <VdW>
0.384

> <VdW6>
-5.595

> <VdW12>
5.979

> <Bond>
0.198

> <Angle>
1.369

> <Pdih>
2.231

> <Idih>
0.000

> <Tether>
0.000

$$$$
VeraChem MOL file


 20 19  0  0  0  0  0  0  0  0999 V2000     
   21.1752   18.9010   24.3538 N   0  3  0  0  0  0  0  0  0  0  0  0
   20.8480   18.1587   24.9799 H   0  0  0  0  0  0  0  0  0  0  0  0
   21.6389   18.4476   23.5611 H   0  0  0  0  0  0  0  0  0  0  0  0
   21.8922   19.4276   24.8636 H   0  0  0  0  0  0  0  0  0  0  0  0
   20.0380   19.7935   23.8964 C   0  0  0  0  0  0  0  0  0  0  0  0
   20.4516   20.5826   23.2648 H   0  0  0  0  0  0  0  0  0  0  0  0
   19.6095   20.2664   24.7843 H   0  0  0  0  0  0  0  0  0  0  0  0
   18.9282   19.0432   23.1350 C   0  0  0  0  0  0  0  0  0  0  0  0
   18.4608   18.3231   23.8197 H   0  0  0  0  0  0  0  0  0  0  0  0
   18.1400   19.7595   22.8678 H   0  0  0  0  0  0  0  0  0  0  0  0
   19.3907   18.2919   21.8576 C   0  0  0  0  0  0  0  0  0  0  0  0
   18.5202   17.7451   21.4694 H   0  0  0  0  0  0  0  0  0  0  0  0
   20.1303   17.5197   22.1078 H   0  0  0  0  0  0  0  0  0  0  0  0
   19.9245   19.1993   20.7187 C   0  0  0  0  0  0  0  0  0  0  0  0
   19.7635   18.6804   19.7633 H   0  0  0  0  0  0  0  0  0  0  0  0
   19.3347   20.1248   20.6615 H   0  0  0  0  0  0  0  0  0  0  0  0
   21.4314   19.5310   20.8265 C   0  0  0  0  0  0  0  0  0  0  0  0
   22.0340   18.6162   20.8948 H   0  0  0  0  0  0  0  0  0  0  0  0
   21.7638   20.0795   19.9355 H   0  0  0  0  0  0  0  0  0  0  0  0
   21.6574   20.1587   21.6944 H   0  0  0  0  0  0  0  0  0  0  0  0
  1  2  1  0  0  0  0
  1  3  1  0  0  0  0
  1  4  1  0  0  0  0
  1  5  1  0  0  0  0
  5  6  1  0  0  0  0
  5  7  1  0  0  0  0
  5  8  1  0  0  0  0
  8  9  1  0  0  0  0
  8 10  1  0  0  0  0
  8 11  1  0  0  0  0
 11 12  1  0  0  0  0
 11 13  1  0  0  0  0
 11 14  1  0  0  0  0
 14 15  1  0  0  0  0
 14 16  1  0  0  0  0
 14 17  1  0  0  0  0
 17 18  1  0  0  0  0
 17 19  1  0  0  0  0
 17 20  1  0  0  0  0
M  END
> <VM2 Rank>
24

> <Conf_Id>
82

> <Probability>
0.04

> <Sum Probability>
99.96

> <Delta G>
3.688

> <G>
30.693

> <E>
7.505

> <-TS>
23.189

> <U+W>
-8.592

> <U>
49.667

> <W>
-58.259

> <W(PB)>
-60.110

> <W(SA)>
1.851

> <Valence>
3.948

> <Coulomb>
45.464

> <VdW>
0.254

> <VdW6>
-5.831

> <VdW12>
6.086

> <Bond>
0.203

> <Angle>
1.495

> <Pdih>
2.250

> <Idih>
0.000

> <Tether>
0.000

$$$$
VeraChem MOL file


 20 19  0  0  0  0  0  0  0  0999 V2000     
   18.8234   19.0126   24.0373 N   0  3  0  0  0  0  0  0  0  0  0  0
   18.5483   18.5961   23.1434 H   0  0  0  0  0  0  0  0  0  0  0  0
   18.3501   18.4849   24.7784 H   0  0  0  0  0  0  0  0  0  0  0  0
   18.4415   19.9633   24.0588 H   0  0  0  0  0  0  0  0  0  0  0  0
   20.3288   19.0089   24.2170 C   0  0  0  0  0  0  0  0  0  0  0  0
   20.6686   17.9716   24.2795 H   0  0  0  0  0  0  0  0  0  0  0  0
   20.5374   19.4912   25.1758 H   0  0  0  0  0  0  0  0  0  0  0  0
   21.1036   19.7444   23.1035 C   0  0  0  0  0  0  0  0  0  0  0  0
   20.6089   20.6931   22.8594 H   0  0  0  0  0  0  0  0  0  0  0  0
   22.0857   20.0201   23.5097 H   0  0  0  0  0  0  0  0  0  0  0  0
   21.3441   18.8991   21.8238 C   0  0  0  0  0  0  0  0  0  0  0  0
   21.9218   18.0043   22.0941 H   0  0  0  0  0  0  0  0  0  0  0  0
   21.9870   19.4735   21.1426 H   0  0  0  0  0  0  0  0  0  0  0  0
   20.0768   18.4563   21.0498 C   0  0  0  0  0  0  0  0  0  0  0  0
   20.3927   17.8678   20.1770 H   0  0  0  0  0  0  0  0  0  0  0  0
   19.4753   17.7722   21.6613 H   0  0  0  0  0  0  0  0  0  0  0  0
   19.2114   19.6387   20.5566 C   0  0  0  0  0  0  0  0  0  0  0  0
   18.3655   19.2739   19.9595 H   0  0  0  0  0  0  0  0  0  0  0  0
   18.8020   20.2228   21.3891 H   0  0  0  0  0  0  0  0  0  0  0  0
   19.7989   20.3162   19.9234 H   0  0  0  0  0  0  0  0  0  0  0  0
  1  2  1  0  0  0  0
  1  3  1  0  0  0  0
  1  4  1  0  0  0  0
  1  5  1  0  0  0  0
  5  6  1  0  0  0  0
  5  7  1  0  0  0  0
  5  8  1  0  0  0  0
  8  9  1  0  0  0  0
  8 10  1  0  0  0  0
  8 11  1  0  0  0  0
 11 12  1  0  0  0  0
 11 13  1  0  0  0  0
 11 14  1  0  0  0  0
 14 15  1  0  0  0  0
 14 16  1  0  0  0  0
 14 17  1  0  0  0  0
 17 18  1  0  0  0  0
 17 19  1  0  0  0  0
 17 20  1  0  0  0  0
M  END
> <VM2 Rank>
25

> <Conf_Id>
246

> <Probability>
0.02

> <Sum Probability>
99.98

> <Delta G>
4.124

> <G>
31.129

> <E>
7.726

> <-TS>
23.403

> <U+W>
-8.370

> <U>
49.568

> <W>
-57.938

> <W(PB)>
-59.794

> <W(SA)>
1.856

> <Valence>
3.368

> <Coulomb>
46.021

> <VdW>
0.179

> <VdW6>
-6.025

> <VdW12>
6.204

> <Bond>
0.196

> <Angle>
1.442

> <Pdih>
1.730

> <Idih>
0.000

> <Tether>
0.000

$$$$
VeraChem MOL file


 20 19  0  0  0  0  0  0  0  0999 V2000     
   19.2040   18.1921   24.0383 N   0  3  0  0  0  0  0  0  0  0  0  0
   19.6831   17.2866   24.0618 H   0  0  0  0  0  0  0  0  0  0  0  0
   18.4949   18.1730   24.7788 H   0  0  0  0  0  0  0  0  0  0  0  0
   18.7091   18.2495   23.1439 H   0  0  0  0  0  0  0  0  0  0  0  0
   20.1733   19.3442   24.2167 C   0  0  0  0  0  0  0  0  0  0  0  0
   20.6755   19.1936   25.1762 H   0  0  0  0  0  0  0  0  0  0  0  0
   19.6008   20.2736   24.2770 H   0  0  0  0  0  0  0  0  0  0  0  0
   21.2362   19.4585   23.1038 C   0  0  0  0  0  0  0  0  0  0  0  0
   22.0806   20.0311   23.5097 H   0  0  0  0  0  0  0  0  0  0  0  0
   21.6412   18.4676   22.8619 H   0  0  0  0  0  0  0  0  0  0  0  0
   20.7472   20.1856   21.8223 C   0  0  0  0  0  0  0  0  0  0  0  0
   21.6016   20.3043   21.1417 H   0  0  0  0  0  0  0  0  0  0  0  0
   20.4369   21.2050   22.0904 H   0  0  0  0  0  0  0  0  0  0  0  0
   19.5914   19.5025   21.0486 C   0  0  0  0  0  0  0  0  0  0  0  0
   18.6801   19.4862   21.6593 H   0  0  0  0  0  0  0  0  0  0  0  0
   19.3469   20.1221   20.1744 H   0  0  0  0  0  0  0  0  0  0  0  0
   19.9358   18.0772   20.5584 C   0  0  0  0  0  0  0  0  0  0  0  0
   20.1167   17.3891   21.3924 H   0  0  0  0  0  0  0  0  0  0  0  0
   19.1115   17.6658   19.9614 H   0  0  0  0  0  0  0  0  0  0  0  0
   20.8330   18.0870   19.9259 H   0  0  0  0  0  0  0  0  0  0  0  0
  1  2  1  0  0  0  0
  1  3  1  0  0  0  0
  1  4  1  0  0  0  0
  1  5  1  0  0  0  0
  5  6  1  0  0  0  0
  5  7  1  0  0  0  0
  5  8  1  0  0  0  0
  8  9  1  0  0  0  0
  8 10  1  0  0  0  0
  8 11  1  0  0  0  0
 11 12  1  0  0  0  0
 11 13  1  0  0  0  0
 11 14  1  0  0  0  0
 14 15  1  0  0  0  0
 14 16  1  0  0  0  0
 14 17  1  0  0  0  0
 17 18  1  0  0  0  0
 17 19  1  0  0  0  0
 17 20  1  0  0  0  0
M  END
> <VM2 Rank>
26

> <Conf_Id>
149

> <Probability>
0.02

> <Sum Probability>
100.00

> <Delta G>
4.192

> <G>
31.197

> <E>
7.794

> <-TS>
23.403

> <U+W>
-8.302

> <U>
49.568

> <W>
-57.870

> <W(PB)>
-59.720

> <W(SA)>
1.850

> <Valence>
3.368

> <Coulomb>
46.021

> <VdW>
0.179

> <VdW6>
-6.025

> <VdW12>
6.203

> <Bond>
0.197

> <Angle>
1.442

> <Pdih>
1.730

> <Idih>
0.000

> <Tether>
0.000

$$$$
VeraChem MOL file


 20 19  0  0  0  0  0  0  0  0999 V2000     
   20.3762   17.8730   24.0431 N   0  3  0  0  0  0  0  0  0  0  0  0
   20.3868   17.4941   23.0912 H   0  0  0  0  0  0  0  0  0  0  0  0
   21.1249   17.4071   24.5665 H   0  0  0  0  0  0  0  0  0  0  0  0
   19.4905   17.5900   24.4742 H   0  0  0  0  0  0  0  0  0  0  0  0
   20.5441   19.3801   24.0402 C   0  0  0  0  0  0  0  0  0  0  0  0
   21.5287   19.6226   23.6315 H   0  0  0  0  0  0  0  0  0  0  0  0
   20.5204   19.7062   25.0836 H   0  0  0  0  0  0  0  0  0  0  0  0
   19.4508   20.1309   23.2533 C   0  0  0  0  0  0  0  0  0  0  0  0
   18.4687   19.6887   23.4671 H   0  0  0  0  0  0  0  0  0  0  0  0
   19.4063   21.1574   23.6408 H   0  0  0  0  0  0  0  0  0  0  0  0
   19.6784   20.2135   21.7199 C   0  0  0  0  0  0  0  0  0  0  0  0
   20.5976   20.7768   21.5075 H   0  0  0  0  0  0  0  0  0  0  0  0
   18.8616   20.8162   21.2989 H   0  0  0  0  0  0  0  0  0  0  0  0
   19.7038   18.8540   20.9759 C   0  0  0  0  0  0  0  0  0  0  0  0
   19.0787   18.1178   21.4989 H   0  0  0  0  0  0  0  0  0  0  0  0
   19.2396   18.9868   19.9884 H   0  0  0  0  0  0  0  0  0  0  0  0
   21.1347   18.3084   20.7556 C   0  0  0  0  0  0  0  0  0  0  0  0
   21.1030   17.3211   20.2767 H   0  0  0  0  0  0  0  0  0  0  0  0
   21.7053   18.9764   20.0972 H   0  0  0  0  0  0  0  0  0  0  0  0
   21.6959   18.2129   21.6914 H   0  0  0  0  0  0  0  0  0  0  0  0
  1  2  1  0  0  0  0
  1  3  1  0  0  0  0
  1  4  1  0  0  0  0
  1  5  1  0  0  0  0
  5  6  1  0  0  0  0
  5  7  1  0  0  0  0
  5  8  1  0  0  0  0
  8  9  1  0  0  0  0
  8 10  1  0  0  0  0
  8 11  1  0  0  0  0
 11 12  1  0  0  0  0
 11 13  1  0  0  0  0
 11 14  1  0  0  0  0
 14 15  1  0  0  0  0
 14 16  1  0  0  0  0
 14 17  1  0  0  0  0
 17 18  1  0  0  0  0
 17 19  1  0  0  0  0
 17 20  1  0  0  0  0
M  END
> <VM2 Rank>
27

> <Conf_Id>
59

> <Probability>
0.00

> <Sum Probability>
100.00

> <Delta G>
6.055

> <G>
33.060

> <E>
9.672

> <-TS>
23.388

> <U+W>
-6.425

> <U>
51.541

> <W>
-57.966

> <W(PB)>
-59.821

> <W(SA)>
1.855

> <Valence>
5.347

> <Coulomb>
45.870

> <VdW>
0.324

> <VdW6>
-6.161

> <VdW12>
6.485

> <Bond>
0.201

> <Angle>
1.484

> <Pdih>
3.662

> <Idih>
0.000

> <Tether>
0.000

$$$$
VeraChem MOL file


 20 19  0  0  0  0  0  0  0  0999 V2000     
   19.3358   20.1128   24.0403 N   0  3  0  0  0  0  0  0  0  0  0  0
   19.4621   20.9866   24.5621 H   0  0  0  0  0  0  0  0  0  0  0  0
   19.0541   20.3635   23.0876 H   0  0  0  0  0  0  0  0  0  0  0  0
   18.5477   19.6195   24.4715 H   0  0  0  0  0  0  0  0  0  0  0  0
   20.5957   19.2690   24.0404 C   0  0  0  0  0  0  0  0  0  0  0  0
   20.8284   19.0426   25.0845 H   0  0  0  0  0  0  0  0  0  0  0  0
   21.4165   19.8641   23.6314 H   0  0  0  0  0  0  0  0  0  0  0  0
   20.4650   17.9477   23.2559 C   0  0  0  0  0  0  0  0  0  0  0  0
   21.2204   17.2524   23.6455 H   0  0  0  0  0  0  0  0  0  0  0  0
   19.4934   17.4828   23.4698 H   0  0  0  0  0  0  0  0  0  0  0  0
   20.6763   18.0653   21.7225 C   0  0  0  0  0  0  0  0  0  0  0  0
   20.6104   17.0516   21.3035 H   0  0  0  0  0  0  0  0  0  0  0  0
   21.6999   18.4040   21.5104 H   0  0  0  0  0  0  0  0  0  0  0  0
   19.6544   18.9601   20.9758 C   0  0  0  0  0  0  0  0  0  0  0  0
   19.4574   18.5178   19.9890 H   0  0  0  0  0  0  0  0  0  0  0  0
   18.6882   18.9583   21.4979 H   0  0  0  0  0  0  0  0  0  0  0  0
   20.1608   20.4051   20.7531 C   0  0  0  0  0  0  0  0  0  0  0  0
   21.0397   20.4089   20.0953 H   0  0  0  0  0  0  0  0  0  0  0  0
   19.3862   21.0167   20.2724 H   0  0  0  0  0  0  0  0  0  0  0  0
   20.4491   20.8973   21.6881 H   0  0  0  0  0  0  0  0  0  0  0  0
  1  2  1  0  0  0  0
  1  3  1  0  0  0  0
  1  4  1  0  0  0  0
  1  5  1  0  0  0  0
  5  6  1  0  0  0  0
  5  7  1  0  0  0  0
  5  8  1  0  0  0  0
  8  9  1  0  0  0  0
  8 10  1  0  0  0  0
  8 11  1  0  0  0  0
 11 12  1  0  0  0  0
 11 13  1  0  0  0  0
 11 14  1  0  0  0  0
 14 15  1  0  0  0  0
 14 16  1  0  0  0  0
 14 17  1  0  0  0  0
 17 18  1  0  0  0  0
 17 19  1  0  0  0  0
 17 20  1  0  0  0  0
M  END
> <VM2 Rank>
28

> <Conf_Id>
228

> <Probability>
0.00

> <Sum Probability>
100.00

> <Delta G>
6.067

> <G>
33.073

> <E>
9.684

> <-TS>
23.388

> <U+W>
-6.412

> <U>
51.542

> <W>
-57.953

> <W(PB)>
-59.811

> <W(SA)>
1.857

> <Valence>
5.347

> <Coulomb>
45.870

> <VdW>
0.325

> <VdW6>
-6.161

> <VdW12>
6.486

> <Bond>
0.201

> <Angle>
1.485

> <Pdih>
3.662

> <Idih>
0.000

> <Tether>
0.000

$$$$
