VeraChem MOL file


 20 19  0  0  0  0  0  0  0  0999 V2000     
   19.8544   19.1510   18.8170 C   0  0  0  0  0  0  0  0  0  0  0  0
   20.0357   20.2331   18.7809 H   0  0  0  0  0  0  0  0  0  0  0  0
   20.3379   18.6999   17.9408 H   0  0  0  0  0  0  0  0  0  0  0  0
   18.7732   18.9828   18.7279 H   0  0  0  0  0  0  0  0  0  0  0  0
   20.4072   18.5374   20.1216 C   0  0  0  0  0  0  0  0  0  0  0  0
   21.4948   18.6912   20.1651 H   0  0  0  0  0  0  0  0  0  0  0  0
   20.2421   17.4507   20.1126 H   0  0  0  0  0  0  0  0  0  0  0  0
   19.7440   19.1542   21.3727 C   0  0  0  0  0  0  0  0  0  0  0  0
   19.9122   20.2394   21.3827 H   0  0  0  0  0  0  0  0  0  0  0  0
   18.6579   18.9972   21.3302 H   0  0  0  0  0  0  0  0  0  0  0  0
   20.3006   18.5374   22.6694 C   0  0  0  0  0  0  0  0  0  0  0  0
   21.3792   18.7056   22.7224 H   0  0  0  0  0  0  0  0  0  0  0  0
   20.1208   17.4593   22.6697 H   0  0  0  0  0  0  0  0  0  0  0  0
   19.6775   19.1133   23.9259 N   0  3  0  0  0  0  0  0  0  0  0  0
   18.6546   18.9805   23.9099 H   0  0  0  0  0  0  0  0  0  0  0  0
   19.8196   20.1345   23.9586 H   0  0  0  0  0  0  0  0  0  0  0  0
   20.2824   18.4507   25.1565 C   0  0  0  0  0  0  0  0  0  0  0  0
   20.0902   17.3763   25.1179 H   0  0  0  0  0  0  0  0  0  0  0  0
   21.3591   18.6332   25.1710 H   0  0  0  0  0  0  0  0  0  0  0  0
   19.8251   18.8744   26.0534 H   0  0  0  0  0  0  0  0  0  0  0  0
  1  2  1  0  0  0  0
  1  3  1  0  0  0  0
  1  4  1  0  0  0  0
  1  5  1  0  0  0  0
  5  6  1  0  0  0  0
  5  7  1  0  0  0  0
  5  8  1  0  0  0  0
  8  9  1  0  0  0  0
  8 10  1  0  0  0  0
  8 11  1  0  0  0  0
 11 12  1  0  0  0  0
 11 13  1  0  0  0  0
 11 14  1  0  0  0  0
 14 15  1  0  0  0  0
 14 16  1  0  0  0  0
 14 17  1  0  0  0  0
 17 18  1  0  0  0  0
 17 19  1  0  0  0  0
 17 20  1  0  0  0  0
M  END
> <VM2 Rank>
1

> <Conf_Id>
295

> <Probability>
14.30

> <Sum Probability>
14.30

> <Delta G>
0.000

> <G>
53.936

> <E>
31.434

> <-TS>
22.502

> <U+W>
15.338

> <U>
69.277

> <W>
-53.939

> <W(PB)>
-55.889

> <W(SA)>
1.950

> <Valence>
0.846

> <Coulomb>
68.557

> <VdW>
-0.126

> <VdW6>
-3.008

> <VdW12>
2.882

> <Bond>
0.088

> <Angle>
0.332

> <Pdih>
0.426

> <Idih>
0.000

> <Tether>
0.000

$$$$
VeraChem MOL file


 20 19  0  0  0  0  0  0  0  0999 V2000     
   20.2446   19.5233   19.0575 C   0  0  0  0  0  0  0  0  0  0  0  0
   21.0842   20.2046   19.2476 H   0  0  0  0  0  0  0  0  0  0  0  0
   20.4070   19.0550   18.0781 H   0  0  0  0  0  0  0  0  0  0  0  0
   19.3264   20.1218   18.9958 H   0  0  0  0  0  0  0  0  0  0  0  0
   20.1367   18.4514   20.1636 C   0  0  0  0  0  0  0  0  0  0  0  0
   21.0551   17.8475   20.1778 H   0  0  0  0  0  0  0  0  0  0  0  0
   19.3111   17.7650   19.9276 H   0  0  0  0  0  0  0  0  0  0  0  0
   19.9076   19.0822   21.5548 C   0  0  0  0  0  0  0  0  0  0  0  0
   20.7341   19.7663   21.7862 H   0  0  0  0  0  0  0  0  0  0  0  0
   18.9879   19.6818   21.5410 H   0  0  0  0  0  0  0  0  0  0  0  0
   19.7993   18.0036   22.6525 C   0  0  0  0  0  0  0  0  0  0  0  0
   20.7299   17.4332   22.7055 H   0  0  0  0  0  0  0  0  0  0  0  0
   18.9936   17.3124   22.3922 H   0  0  0  0  0  0  0  0  0  0  0  0
   19.5005   18.5425   24.0421 N   0  3  0  0  0  0  0  0  0  0  0  0
   19.2823   17.7584   24.6768 H   0  0  0  0  0  0  0  0  0  0  0  0
   18.6431   19.1156   24.0265 H   0  0  0  0  0  0  0  0  0  0  0  0
   20.6774   19.3410   24.5924 C   0  0  0  0  0  0  0  0  0  0  0  0
   20.8598   20.2063   23.9521 H   0  0  0  0  0  0  0  0  0  0  0  0
   20.4393   19.6779   25.6038 H   0  0  0  0  0  0  0  0  0  0  0  0
   21.5642   18.7042   24.6162 H   0  0  0  0  0  0  0  0  0  0  0  0
  1  2  1  0  0  0  0
  1  3  1  0  0  0  0
  1  4  1  0  0  0  0
  1  5  1  0  0  0  0
  5  6  1  0  0  0  0
  5  7  1  0  0  0  0
  5  8  1  0  0  0  0
  8  9  1  0  0  0  0
  8 10  1  0  0  0  0
  8 11  1  0  0  0  0
 11 12  1  0  0  0  0
 11 13  1  0  0  0  0
 11 14  1  0  0  0  0
 14 15  1  0  0  0  0
 14 16  1  0  0  0  0
 14 17  1  0  0  0  0
 17 18  1  0  0  0  0
 17 19  1  0  0  0  0
 17 20  1  0  0  0  0
M  END
> <VM2 Rank>
2

> <Conf_Id>
257

> <Probability>
11.16

> <Sum Probability>
25.46

> <Delta G>
0.148

> <G>
54.084

> <E>
31.414

> <-TS>
22.670

> <U+W>
15.318

> <U>
69.657

> <W>
-54.338

> <W(PB)>
-56.237

> <W(SA)>
1.899

> <Valence>
1.137

> <Coulomb>
68.383

> <VdW>
0.138

> <VdW6>
-3.703

> <VdW12>
3.841

> <Bond>
0.125

> <Angle>
0.468

> <Pdih>
0.543

> <Idih>
0.000

> <Tether>
0.000

$$$$
VeraChem MOL file


 20 19  0  0  0  0  0  0  0  0999 V2000     
   19.4687   18.7548   19.0250 C   0  0  0  0  0  0  0  0  0  0  0  0
   19.9765   18.6288   18.0600 H   0  0  0  0  0  0  0  0  0  0  0  0
   18.7727   17.9152   19.1507 H   0  0  0  0  0  0  0  0  0  0  0  0
   18.8813   19.6811   18.9773 H   0  0  0  0  0  0  0  0  0  0  0  0
   20.4939   18.8052   20.1786 C   0  0  0  0  0  0  0  0  0  0  0  0
   21.1967   19.6327   20.0065 H   0  0  0  0  0  0  0  0  0  0  0  0
   21.0886   17.8807   20.1792 H   0  0  0  0  0  0  0  0  0  0  0  0
   19.8069   18.9825   21.5506 C   0  0  0  0  0  0  0  0  0  0  0  0
   19.2165   19.9083   21.5507 H   0  0  0  0  0  0  0  0  0  0  0  0
   19.1063   18.1543   21.7180 H   0  0  0  0  0  0  0  0  0  0  0  0
   20.8390   19.0332   22.6961 C   0  0  0  0  0  0  0  0  0  0  0  0
   21.5478   19.8416   22.4992 H   0  0  0  0  0  0  0  0  0  0  0  0
   21.3984   18.0951   22.7335 H   0  0  0  0  0  0  0  0  0  0  0  0
   20.2446   19.2793   24.0733 N   0  3  0  0  0  0  0  0  0  0  0  0
   19.6803   20.1426   24.0700 H   0  0  0  0  0  0  0  0  0  0  0  0
   21.0031   19.4623   24.7489 H   0  0  0  0  0  0  0  0  0  0  0  0
   19.4130   18.0890   24.5394 C   0  0  0  0  0  0  0  0  0  0  0  0
   20.0403   17.1951   24.5522 H   0  0  0  0  0  0  0  0  0  0  0  0
   19.0359   18.2881   25.5450 H   0  0  0  0  0  0  0  0  0  0  0  0
   18.5739   17.9429   23.8563 H   0  0  0  0  0  0  0  0  0  0  0  0
  1  2  1  0  0  0  0
  1  3  1  0  0  0  0
  1  4  1  0  0  0  0
  1  5  1  0  0  0  0
  5  6  1  0  0  0  0
  5  7  1  0  0  0  0
  5  8  1  0  0  0  0
  8  9  1  0  0  0  0
  8 10  1  0  0  0  0
  8 11  1  0  0  0  0
 11 12  1  0  0  0  0
 11 13  1  0  0  0  0
 11 14  1  0  0  0  0
 14 15  1  0  0  0  0
 14 16  1  0  0  0  0
 14 17  1  0  0  0  0
 17 18  1  0  0  0  0
 17 19  1  0  0  0  0
 17 20  1  0  0  0  0
M  END
> <VM2 Rank>
3

> <Conf_Id>
2

> <Probability>
9.60

> <Sum Probability>
35.07

> <Delta G>
0.237

> <G>
54.174

> <E>
31.503

> <-TS>
22.670

> <U+W>
15.407

> <U>
69.657

> <W>
-54.250

> <W(PB)>
-56.176

> <W(SA)>
1.926

> <Valence>
1.137

> <Coulomb>
68.383

> <VdW>
0.138

> <VdW6>
-3.703

> <VdW12>
3.841

> <Bond>
0.125

> <Angle>
0.468

> <Pdih>
0.543

> <Idih>
0.000

> <Tether>
0.000

$$$$
VeraChem MOL file


 20 19  0  0  0  0  0  0  0  0999 V2000     
   20.8667   19.3665   19.5193 C   0  0  0  0  0  0  0  0  0  0  0  0
   20.5576   20.4198   19.5219 H   0  0  0  0  0  0  0  0  0  0  0  0
   21.7364   19.2628   20.1803 H   0  0  0  0  0  0  0  0  0  0  0  0
   21.1934   19.1163   18.5016 H   0  0  0  0  0  0  0  0  0  0  0  0
   19.7057   18.4446   19.9580 C   0  0  0  0  0  0  0  0  0  0  0  0
   20.0430   17.3984   19.9527 H   0  0  0  0  0  0  0  0  0  0  0  0
   18.8958   18.5113   19.2180 H   0  0  0  0  0  0  0  0  0  0  0  0
   19.1424   18.8035   21.3530 C   0  0  0  0  0  0  0  0  0  0  0  0
   18.7742   19.8381   21.3461 H   0  0  0  0  0  0  0  0  0  0  0  0
   18.2763   18.1625   21.5643 H   0  0  0  0  0  0  0  0  0  0  0  0
   20.1840   18.6322   22.4760 C   0  0  0  0  0  0  0  0  0  0  0  0
   21.0330   19.2957   22.2953 H   0  0  0  0  0  0  0  0  0  0  0  0
   20.5484   17.6019   22.4843 H   0  0  0  0  0  0  0  0  0  0  0  0
   19.6383   18.9444   23.8556 N   0  3  0  0  0  0  0  0  0  0  0  0
   18.8280   18.3409   24.0637 H   0  0  0  0  0  0  0  0  0  0  0  0
   19.2747   19.9093   23.8852 H   0  0  0  0  0  0  0  0  0  0  0  0
   20.7289   18.7528   24.9011 C   0  0  0  0  0  0  0  0  0  0  0  0
   20.3227   18.9808   25.8891 H   0  0  0  0  0  0  0  0  0  0  0  0
   21.0743   17.7170   24.8752 H   0  0  0  0  0  0  0  0  0  0  0  0
   21.5607   19.4254   24.6810 H   0  0  0  0  0  0  0  0  0  0  0  0
  1  2  1  0  0  0  0
  1  3  1  0  0  0  0
  1  4  1  0  0  0  0
  1  5  1  0  0  0  0
  5  6  1  0  0  0  0
  5  7  1  0  0  0  0
  5  8  1  0  0  0  0
  8  9  1  0  0  0  0
  8 10  1  0  0  0  0
  8 11  1  0  0  0  0
 11 12  1  0  0  0  0
 11 13  1  0  0  0  0
 11 14  1  0  0  0  0
 14 15  1  0  0  0  0
 14 16  1  0  0  0  0
 14 17  1  0  0  0  0
 17 18  1  0  0  0  0
 17 19  1  0  0  0  0
 17 20  1  0  0  0  0
M  END
> <VM2 Rank>
4

> <Conf_Id>
148

> <Probability>
7.71

> <Sum Probability>
42.78

> <Delta G>
0.368

> <G>
54.305

> <E>
31.706

> <-TS>
22.599

> <U+W>
15.609

> <U>
69.798

> <W>
-54.189

> <W(PB)>
-56.121

> <W(SA)>
1.932

> <Valence>
1.134

> <Coulomb>
68.735

> <VdW>
-0.070

> <VdW6>
-3.564

> <VdW12>
3.494

> <Bond>
0.108

> <Angle>
0.457

> <Pdih>
0.569

> <Idih>
0.000

> <Tether>
0.000

$$$$
VeraChem MOL file


 20 19  0  0  0  0  0  0  0  0999 V2000     
   19.6008   18.1121   19.4663 C   0  0  0  0  0  0  0  0  0  0  0  0
   19.6694   17.2145   20.0938 H   0  0  0  0  0  0  0  0  0  0  0  0
   18.5509   18.4313   19.4379 H   0  0  0  0  0  0  0  0  0  0  0  0
   19.8911   17.8258   18.4471 H   0  0  0  0  0  0  0  0  0  0  0  0
   20.5129   19.2445   19.9918 C   0  0  0  0  0  0  0  0  0  0  0  0
   20.4841   20.0853   19.2845 H   0  0  0  0  0  0  0  0  0  0  0  0
   21.5556   18.8973   20.0161 H   0  0  0  0  0  0  0  0  0  0  0  0
   20.1000   19.7524   21.3931 C   0  0  0  0  0  0  0  0  0  0  0  0
   20.7388   20.6025   21.6675 H   0  0  0  0  0  0  0  0  0  0  0  0
   19.0698   20.1311   21.3585 H   0  0  0  0  0  0  0  0  0  0  0  0
   20.2150   18.6631   22.4773 C   0  0  0  0  0  0  0  0  0  0  0  0
   21.2409   18.2881   22.5132 H   0  0  0  0  0  0  0  0  0  0  0  0
   19.5526   17.8292   22.2333 H   0  0  0  0  0  0  0  0  0  0  0  0
   19.8496   19.1536   23.8645 N   0  3  0  0  0  0  0  0  0  0  0  0
   18.8875   19.5257   23.8691 H   0  0  0  0  0  0  0  0  0  0  0  0
   20.4508   19.9482   24.1317 H   0  0  0  0  0  0  0  0  0  0  0  0
   19.9875   18.0183   24.8700 C   0  0  0  0  0  0  0  0  0  0  0  0
   21.0204   17.6635   24.8727 H   0  0  0  0  0  0  0  0  0  0  0  0
   19.7217   18.3850   25.8639 H   0  0  0  0  0  0  0  0  0  0  0  0
   19.3176   17.2035   24.5870 H   0  0  0  0  0  0  0  0  0  0  0  0
  1  2  1  0  0  0  0
  1  3  1  0  0  0  0
  1  4  1  0  0  0  0
  1  5  1  0  0  0  0
  5  6  1  0  0  0  0
  5  7  1  0  0  0  0
  5  8  1  0  0  0  0
  8  9  1  0  0  0  0
  8 10  1  0  0  0  0
  8 11  1  0  0  0  0
 11 12  1  0  0  0  0
 11 13  1  0  0  0  0
 11 14  1  0  0  0  0
 14 15  1  0  0  0  0
 14 16  1  0  0  0  0
 14 17  1  0  0  0  0
 17 18  1  0  0  0  0
 17 19  1  0  0  0  0
 17 20  1  0  0  0  0
M  END
> <VM2 Rank>
5

> <Conf_Id>
34

> <Probability>
7.65

> <Sum Probability>
50.42

> <Delta G>
0.373

> <G>
54.310

> <E>
31.711

> <-TS>
22.599

> <U+W>
15.615

> <U>
69.798

> <W>
-54.184

> <W(PB)>
-56.116

> <W(SA)>
1.933

> <Valence>
1.134

> <Coulomb>
68.735

> <VdW>
-0.070

> <VdW6>
-3.565

> <VdW12>
3.494

> <Bond>
0.108

> <Angle>
0.456

> <Pdih>
0.569

> <Idih>
0.000

> <Tether>
0.000

$$$$
VeraChem MOL file


 20 19  0  0  0  0  0  0  0  0999 V2000     
   19.6844   18.8158   18.9888 C   0  0  0  0  0  0  0  0  0  0  0  0
   18.8181   19.4884   18.9413 H   0  0  0  0  0  0  0  0  0  0  0  0
   20.5415   19.3303   18.5351 H   0  0  0  0  0  0  0  0  0  0  0  0
   19.4592   17.9337   18.3755 H   0  0  0  0  0  0  0  0  0  0  0  0
   19.9896   18.4042   20.4454 C   0  0  0  0  0  0  0  0  0  0  0  0
   20.8399   17.7076   20.4564 H   0  0  0  0  0  0  0  0  0  0  0  0
   19.1274   17.8584   20.8519 H   0  0  0  0  0  0  0  0  0  0  0  0
   20.3100   19.6310   21.3317 C   0  0  0  0  0  0  0  0  0  0  0  0
   21.1481   20.1874   20.8914 H   0  0  0  0  0  0  0  0  0  0  0  0
   19.4537   20.3182   21.3480 H   0  0  0  0  0  0  0  0  0  0  0  0
   20.6879   19.2436   22.7755 C   0  0  0  0  0  0  0  0  0  0  0  0
   20.9885   20.1404   23.3232 H   0  0  0  0  0  0  0  0  0  0  0  0
   21.5357   18.5541   22.7610 H   0  0  0  0  0  0  0  0  0  0  0  0
   19.5633   18.5876   23.5547 N   0  3  0  0  0  0  0  0  0  0  0  0
   19.2486   17.7326   23.0728 H   0  0  0  0  0  0  0  0  0  0  0  0
   18.7396   19.2080   23.5803 H   0  0  0  0  0  0  0  0  0  0  0  0
   20.0308   18.2619   24.9669 C   0  0  0  0  0  0  0  0  0  0  0  0
   19.2126   17.7907   25.5160 H   0  0  0  0  0  0  0  0  0  0  0  0
   20.8814   17.5788   24.9159 H   0  0  0  0  0  0  0  0  0  0  0  0
   20.3278   19.1849   25.4694 H   0  0  0  0  0  0  0  0  0  0  0  0
  1  2  1  0  0  0  0
  1  3  1  0  0  0  0
  1  4  1  0  0  0  0
  1  5  1  0  0  0  0
  5  6  1  0  0  0  0
  5  7  1  0  0  0  0
  5  8  1  0  0  0  0
  8  9  1  0  0  0  0
  8 10  1  0  0  0  0
  8 11  1  0  0  0  0
 11 12  1  0  0  0  0
 11 13  1  0  0  0  0
 11 14  1  0  0  0  0
 14 15  1  0  0  0  0
 14 16  1  0  0  0  0
 14 17  1  0  0  0  0
 17 18  1  0  0  0  0
 17 19  1  0  0  0  0
 17 20  1  0  0  0  0
M  END
> <VM2 Rank>
6

> <Conf_Id>
227

> <Probability>
7.25

> <Sum Probability>
57.67

> <Delta G>
0.405

> <G>
54.342

> <E>
31.753

> <-TS>
22.589

> <U+W>
15.657

> <U>
69.962

> <W>
-54.305

> <W(PB)>
-56.224

> <W(SA)>
1.918

> <Valence>
0.982

> <Coulomb>
69.058

> <VdW>
-0.078

> <VdW6>
-3.548

> <VdW12>
3.471

> <Bond>
0.105

> <Angle>
0.408

> <Pdih>
0.469

> <Idih>
0.000

> <Tether>
0.000

$$$$
VeraChem MOL file


 20 19  0  0  0  0  0  0  0  0999 V2000     
   20.1835   19.3100   19.0098 C   0  0  0  0  0  0  0  0  0  0  0  0
   19.6812   18.4781   18.4990 H   0  0  0  0  0  0  0  0  0  0  0  0
   19.5210   20.1845   18.9707 H   0  0  0  0  0  0  0  0  0  0  0  0
   21.0926   19.5515   18.4440 H   0  0  0  0  0  0  0  0  0  0  0  0
   20.5304   18.9398   20.4681 C   0  0  0  0  0  0  0  0  0  0  0  0
   21.0660   19.7785   20.9332 H   0  0  0  0  0  0  0  0  0  0  0  0
   21.2184   18.0826   20.4723 H   0  0  0  0  0  0  0  0  0  0  0  0
   19.2645   18.5954   21.2879 C   0  0  0  0  0  0  0  0  0  0  0  0
   18.5847   19.4575   21.3115 H   0  0  0  0  0  0  0  0  0  0  0  0
   18.7198   17.7824   20.7897 H   0  0  0  0  0  0  0  0  0  0  0  0
   19.5871   18.1535   22.7294 C   0  0  0  0  0  0  0  0  0  0  0  0
   20.2692   17.2998   22.7079 H   0  0  0  0  0  0  0  0  0  0  0  0
   18.6654   17.8397   23.2259 H   0  0  0  0  0  0  0  0  0  0  0  0
   20.2194   19.2374   23.5822 N   0  3  0  0  0  0  0  0  0  0  0  0
   19.6057   20.0658   23.6166 H   0  0  0  0  0  0  0  0  0  0  0  0
   21.0967   19.5631   23.1501 H   0  0  0  0  0  0  0  0  0  0  0  0
   20.4812   18.7079   24.9857 C   0  0  0  0  0  0  0  0  0  0  0  0
   21.1583   17.8530   24.9274 H   0  0  0  0  0  0  0  0  0  0  0  0
   20.9360   19.4974   25.5881 H   0  0  0  0  0  0  0  0  0  0  0  0
   19.5352   18.3999   25.4363 H   0  0  0  0  0  0  0  0  0  0  0  0
  1  2  1  0  0  0  0
  1  3  1  0  0  0  0
  1  4  1  0  0  0  0
  1  5  1  0  0  0  0
  5  6  1  0  0  0  0
  5  7  1  0  0  0  0
  5  8  1  0  0  0  0
  8  9  1  0  0  0  0
  8 10  1  0  0  0  0
  8 11  1  0  0  0  0
 11 12  1  0  0  0  0
 11 13  1  0  0  0  0
 11 14  1  0  0  0  0
 14 15  1  0  0  0  0
 14 16  1  0  0  0  0
 14 17  1  0  0  0  0
 17 18  1  0  0  0  0
 17 19  1  0  0  0  0
 17 20  1  0  0  0  0
M  END
> <VM2 Rank>
7

> <Conf_Id>
85

> <Probability>
6.76

> <Sum Probability>
64.44

> <Delta G>
0.446

> <G>
54.383

> <E>
31.794

> <-TS>
22.589

> <U+W>
15.698

> <U>
69.962

> <W>
-54.265

> <W(PB)>
-56.166

> <W(SA)>
1.901

> <Valence>
0.982

> <Coulomb>
69.058

> <VdW>
-0.077

> <VdW6>
-3.548

> <VdW12>
3.471

> <Bond>
0.105

> <Angle>
0.408

> <Pdih>
0.469

> <Idih>
0.000

> <Tether>
0.000

$$$$
VeraChem MOL file


 20 19  0  0  0  0  0  0  0  0999 V2000     
   19.9200   18.3277   19.2181 C   0  0  0  0  0  0  0  0  0  0  0  0
   19.1805   17.5283   19.3569 H   0  0  0  0  0  0  0  0  0  0  0  0
   19.4297   19.1597   18.6959 H   0  0  0  0  0  0  0  0  0  0  0  0
   20.7134   17.9420   18.5648 H   0  0  0  0  0  0  0  0  0  0  0  0
   20.5031   18.7867   20.5721 C   0  0  0  0  0  0  0  0  0  0  0  0
   21.2615   19.5630   20.3981 H   0  0  0  0  0  0  0  0  0  0  0  0
   21.0178   17.9399   21.0463 H   0  0  0  0  0  0  0  0  0  0  0  0
   19.4039   19.3333   21.5132 C   0  0  0  0  0  0  0  0  0  0  0  0
   18.8686   20.1494   21.0102 H   0  0  0  0  0  0  0  0  0  0  0  0
   18.6579   18.5531   21.7124 H   0  0  0  0  0  0  0  0  0  0  0  0
   19.9682   19.8726   22.8464 C   0  0  0  0  0  0  0  0  0  0  0  0
   19.1525   20.2800   23.4490 H   0  0  0  0  0  0  0  0  0  0  0  0
   20.6654   20.6868   22.6329 H   0  0  0  0  0  0  0  0  0  0  0  0
   20.7070   18.8539   23.7014 N   0  3  0  0  0  0  0  0  0  0  0  0
   21.1551   19.3327   24.4984 H   0  0  0  0  0  0  0  0  0  0  0  0
   21.4862   18.4404   23.1685 H   0  0  0  0  0  0  0  0  0  0  0  0
   19.7639   17.7699   24.2117 C   0  0  0  0  0  0  0  0  0  0  0  0
   18.9608   18.2344   24.7879 H   0  0  0  0  0  0  0  0  0  0  0  0
   19.3444   17.2262   23.3630 H   0  0  0  0  0  0  0  0  0  0  0  0
   20.3224   17.0804   24.8486 H   0  0  0  0  0  0  0  0  0  0  0  0
  1  2  1  0  0  0  0
  1  3  1  0  0  0  0
  1  4  1  0  0  0  0
  1  5  1  0  0  0  0
  5  6  1  0  0  0  0
  5  7  1  0  0  0  0
  5  8  1  0  0  0  0
  8  9  1  0  0  0  0
  8 10  1  0  0  0  0
  8 11  1  0  0  0  0
 11 12  1  0  0  0  0
 11 13  1  0  0  0  0
 11 14  1  0  0  0  0
 14 15  1  0  0  0  0
 14 16  1  0  0  0  0
 14 17  1  0  0  0  0
 17 18  1  0  0  0  0
 17 19  1  0  0  0  0
 17 20  1  0  0  0  0
M  END
> <VM2 Rank>
8

> <Conf_Id>
109

> <Probability>
5.59

> <Sum Probability>
70.03

> <Delta G>
0.560

> <G>
54.497

> <E>
31.685

> <-TS>
22.812

> <U+W>
15.588

> <U>
70.298

> <W>
-54.710

> <W(PB)>
-56.587

> <W(SA)>
1.877

> <Valence>
1.245

> <Coulomb>
68.933

> <VdW>
0.120

> <VdW6>
-4.430

> <VdW12>
4.550

> <Bond>
0.148

> <Angle>
0.587

> <Pdih>
0.510

> <Idih>
0.000

> <Tether>
0.000

$$$$
VeraChem MOL file


 20 19  0  0  0  0  0  0  0  0999 V2000     
   20.6592   19.0610   19.2492 C   0  0  0  0  0  0  0  0  0  0  0  0
   21.4573   19.7867   19.4526 H   0  0  0  0  0  0  0  0  0  0  0  0
   21.0664   18.2923   18.5796 H   0  0  0  0  0  0  0  0  0  0  0  0
   19.8537   19.5803   18.7138 H   0  0  0  0  0  0  0  0  0  0  0  0
   20.1391   18.4256   20.5568 C   0  0  0  0  0  0  0  0  0  0  0  0
   20.9613   17.8839   21.0438 H   0  0  0  0  0  0  0  0  0  0  0  0
   19.3653   17.6823   20.3184 H   0  0  0  0  0  0  0  0  0  0  0  0
   19.5611   19.4893   21.5198 C   0  0  0  0  0  0  0  0  0  0  0  0
   20.3375   20.2192   21.7829 H   0  0  0  0  0  0  0  0  0  0  0  0
   18.7708   20.0525   21.0061 H   0  0  0  0  0  0  0  0  0  0  0  0
   18.9619   18.8744   22.8041 C   0  0  0  0  0  0  0  0  0  0  0  0
   18.1525   18.1941   22.5274 H   0  0  0  0  0  0  0  0  0  0  0  0
   18.5352   19.6677   23.4231 H   0  0  0  0  0  0  0  0  0  0  0  0
   19.9383   18.0913   23.6691 N   0  3  0  0  0  0  0  0  0  0  0  0
   20.3684   17.3315   23.1216 H   0  0  0  0  0  0  0  0  0  0  0  0
   19.4230   17.6144   24.4256 H   0  0  0  0  0  0  0  0  0  0  0  0
   21.0064   19.0025   24.2640 C   0  0  0  0  0  0  0  0  0  0  0  0
   21.5884   19.4524   23.4573 H   0  0  0  0  0  0  0  0  0  0  0  0
   20.5237   19.7847   24.8536 H   0  0  0  0  0  0  0  0  0  0  0  0
   21.6643   18.4116   24.9050 H   0  0  0  0  0  0  0  0  0  0  0  0
  1  2  1  0  0  0  0
  1  3  1  0  0  0  0
  1  4  1  0  0  0  0
  1  5  1  0  0  0  0
  5  6  1  0  0  0  0
  5  7  1  0  0  0  0
  5  8  1  0  0  0  0
  8  9  1  0  0  0  0
  8 10  1  0  0  0  0
  8 11  1  0  0  0  0
 11 12  1  0  0  0  0
 11 13  1  0  0  0  0
 11 14  1  0  0  0  0
 14 15  1  0  0  0  0
 14 16  1  0  0  0  0
 14 17  1  0  0  0  0
 17 18  1  0  0  0  0
 17 19  1  0  0  0  0
 17 20  1  0  0  0  0
M  END
> <VM2 Rank>
9

> <Conf_Id>
215

> <Probability>
5.43

> <Sum Probability>
75.45

> <Delta G>
0.578

> <G>
54.514

> <E>
31.702

> <-TS>
22.812

> <U+W>
15.606

> <U>
70.298

> <W>
-54.692

> <W(PB)>
-56.577

> <W(SA)>
1.885

> <Valence>
1.245

> <Coulomb>
68.933

> <VdW>
0.120

> <VdW6>
-4.430

> <VdW12>
4.550

> <Bond>
0.148

> <Angle>
0.587

> <Pdih>
0.510

> <Idih>
0.000

> <Tether>
0.000

$$$$
VeraChem MOL file


 20 19  0  0  0  0  0  0  0  0999 V2000     
   19.7784   18.0527   19.5403 C   0  0  0  0  0  0  0  0  0  0  0  0
   18.8030   17.8264   19.9890 H   0  0  0  0  0  0  0  0  0  0  0  0
   19.6361   18.1154   18.4536 H   0  0  0  0  0  0  0  0  0  0  0  0
   20.4521   17.2096   19.7414 H   0  0  0  0  0  0  0  0  0  0  0  0
   20.3630   19.3751   20.0878 C   0  0  0  0  0  0  0  0  0  0  0  0
   19.6682   20.2006   19.8783 H   0  0  0  0  0  0  0  0  0  0  0  0
   21.2911   19.6080   19.5470 H   0  0  0  0  0  0  0  0  0  0  0  0
   20.6650   19.3196   21.6036 C   0  0  0  0  0  0  0  0  0  0  0  0
   21.3878   18.5177   21.8016 H   0  0  0  0  0  0  0  0  0  0  0  0
   21.1462   20.2588   21.9069 H   0  0  0  0  0  0  0  0  0  0  0  0
   19.3940   19.1058   22.4535 C   0  0  0  0  0  0  0  0  0  0  0  0
   18.9409   18.1420   22.2092 H   0  0  0  0  0  0  0  0  0  0  0  0
   18.6714   19.8900   22.2141 H   0  0  0  0  0  0  0  0  0  0  0  0
   19.6237   19.1451   23.9556 N   0  3  0  0  0  0  0  0  0  0  0  0
   18.7145   19.1600   24.4437 H   0  0  0  0  0  0  0  0  0  0  0  0
   20.0820   20.0291   24.2241 H   0  0  0  0  0  0  0  0  0  0  0  0
   20.4419   17.9458   24.4222 C   0  0  0  0  0  0  0  0  0  0  0  0
   19.9233   17.0262   24.1428 H   0  0  0  0  0  0  0  0  0  0  0  0
   21.4266   17.9733   23.9516 H   0  0  0  0  0  0  0  0  0  0  0  0
   20.5536   17.9897   25.5078 H   0  0  0  0  0  0  0  0  0  0  0  0
  1  2  1  0  0  0  0
  1  3  1  0  0  0  0
  1  4  1  0  0  0  0
  1  5  1  0  0  0  0
  5  6  1  0  0  0  0
  5  7  1  0  0  0  0
  5  8  1  0  0  0  0
  8  9  1  0  0  0  0
  8 10  1  0  0  0  0
  8 11  1  0  0  0  0
 11 12  1  0  0  0  0
 11 13  1  0  0  0  0
 11 14  1  0  0  0  0
 14 15  1  0  0  0  0
 14 16  1  0  0  0  0
 14 17  1  0  0  0  0
 17 18  1  0  0  0  0
 17 19  1  0  0  0  0
 17 20  1  0  0  0  0
M  END
> <VM2 Rank>
10

> <Conf_Id>
220

> <Probability>
4.96

> <Sum Probability>
80.41

> <Delta G>
0.632

> <G>
54.568

> <E>
31.806

> <-TS>
22.762

> <U+W>
15.710

> <U>
70.163

> <W>
-54.453

> <W(PB)>
-56.363

> <W(SA)>
1.911

> <Valence>
1.420

> <Coulomb>
68.566

> <VdW>
0.177

> <VdW6>
-4.267

> <VdW12>
4.445

> <Bond>
0.146

> <Angle>
0.581

> <Pdih>
0.693

> <Idih>
0.000

> <Tether>
0.000

$$$$
VeraChem MOL file


 20 19  0  0  0  0  0  0  0  0999 V2000     
   20.9209   19.1873   19.5883 C   0  0  0  0  0  0  0  0  0  0  0  0
   21.7507   18.4993   19.7961 H   0  0  0  0  0  0  0  0  0  0  0  0
   20.9051   19.3755   18.5070 H   0  0  0  0  0  0  0  0  0  0  0  0
   21.1338   20.1414   20.0869 H   0  0  0  0  0  0  0  0  0  0  0  0
   19.5731   18.5905   20.0546 C   0  0  0  0  0  0  0  0  0  0  0  0
   19.3577   17.6878   19.4658 H   0  0  0  0  0  0  0  0  0  0  0  0
   18.7613   19.2999   19.8402 H   0  0  0  0  0  0  0  0  0  0  0  0
   19.5626   18.2248   21.5573 C   0  0  0  0  0  0  0  0  0  0  0  0
   18.6085   17.7388   21.8003 H   0  0  0  0  0  0  0  0  0  0  0  0
   20.3510   17.4881   21.7581 H   0  0  0  0  0  0  0  0  0  0  0  0
   19.7481   19.4573   22.4684 C   0  0  0  0  0  0  0  0  0  0  0  0
   18.9790   20.1955   22.2269 H   0  0  0  0  0  0  0  0  0  0  0  0
   20.7240   19.9127   22.2841 H   0  0  0  0  0  0  0  0  0  0  0  0
   19.6439   19.1652   23.9564 N   0  3  0  0  0  0  0  0  0  0  0  0
   18.7465   18.7029   24.1680 H   0  0  0  0  0  0  0  0  0  0  0  0
   19.6139   20.0532   24.4815 H   0  0  0  0  0  0  0  0  0  0  0  0
   20.8174   18.3188   24.4379 C   0  0  0  0  0  0  0  0  0  0  0  0
   20.8039   17.3549   23.9254 H   0  0  0  0  0  0  0  0  0  0  0  0
   21.7511   18.8414   24.2195 H   0  0  0  0  0  0  0  0  0  0  0  0
   20.7270   18.1619   25.5151 H   0  0  0  0  0  0  0  0  0  0  0  0
  1  2  1  0  0  0  0
  1  3  1  0  0  0  0
  1  4  1  0  0  0  0
  1  5  1  0  0  0  0
  5  6  1  0  0  0  0
  5  7  1  0  0  0  0
  5  8  1  0  0  0  0
  8  9  1  0  0  0  0
  8 10  1  0  0  0  0
  8 11  1  0  0  0  0
 11 12  1  0  0  0  0
 11 13  1  0  0  0  0
 11 14  1  0  0  0  0
 14 15  1  0  0  0  0
 14 16  1  0  0  0  0
 14 17  1  0  0  0  0
 17 18  1  0  0  0  0
 17 19  1  0  0  0  0
 17 20  1  0  0  0  0
M  END
> <VM2 Rank>
11

> <Conf_Id>
268

> <Probability>
4.90

> <Sum Probability>
85.31

> <Delta G>
0.638

> <G>
54.574

> <E>
31.813

> <-TS>
22.762

> <U+W>
15.716

> <U>
70.163

> <W>
-54.447

> <W(PB)>
-56.323

> <W(SA)>
1.876

> <Valence>
1.420

> <Coulomb>
68.566

> <VdW>
0.177

> <VdW6>
-4.268

> <VdW12>
4.445

> <Bond>
0.146

> <Angle>
0.581

> <Pdih>
0.693

> <Idih>
0.000

> <Tether>
0.000

$$$$
VeraChem MOL file


 20 19  0  0  0  0  0  0  0  0999 V2000     
   19.4758   18.9991   19.3252 C   0  0  0  0  0  0  0  0  0  0  0  0
   19.2923   20.0814   19.3150 H   0  0  0  0  0  0  0  0  0  0  0  0
   19.6032   18.6718   18.2852 H   0  0  0  0  0  0  0  0  0  0  0  0
   18.5802   18.5031   19.7200 H   0  0  0  0  0  0  0  0  0  0  0  0
   20.7313   18.6552   20.1592 C   0  0  0  0  0  0  0  0  0  0  0  0
   21.6147   19.0925   19.6731 H   0  0  0  0  0  0  0  0  0  0  0  0
   20.8871   17.5671   20.1606 H   0  0  0  0  0  0  0  0  0  0  0  0
   20.6523   19.1720   21.6149 C   0  0  0  0  0  0  0  0  0  0  0  0
   21.6078   18.9667   22.1142 H   0  0  0  0  0  0  0  0  0  0  0  0
   20.5275   20.2629   21.6117 H   0  0  0  0  0  0  0  0  0  0  0  0
   19.5026   18.5221   22.4148 C   0  0  0  0  0  0  0  0  0  0  0  0
   19.6403   17.4385   22.4485 H   0  0  0  0  0  0  0  0  0  0  0  0
   18.5563   18.7273   21.9085 H   0  0  0  0  0  0  0  0  0  0  0  0
   19.3641   19.0218   23.8437 N   0  3  0  0  0  0  0  0  0  0  0  0
   18.4813   18.6713   24.2477 H   0  0  0  0  0  0  0  0  0  0  0  0
   19.2703   20.0488   23.8557 H   0  0  0  0  0  0  0  0  0  0  0  0
   20.5400   18.5737   24.7052 C   0  0  0  0  0  0  0  0  0  0  0  0
   20.3841   18.9181   25.7299 H   0  0  0  0  0  0  0  0  0  0  0  0
   20.6025   17.4836   24.6891 H   0  0  0  0  0  0  0  0  0  0  0  0
   21.4630   19.0036   24.3113 H   0  0  0  0  0  0  0  0  0  0  0  0
  1  2  1  0  0  0  0
  1  3  1  0  0  0  0
  1  4  1  0  0  0  0
  1  5  1  0  0  0  0
  5  6  1  0  0  0  0
  5  7  1  0  0  0  0
  5  8  1  0  0  0  0
  8  9  1  0  0  0  0
  8 10  1  0  0  0  0
  8 11  1  0  0  0  0
 11 12  1  0  0  0  0
 11 13  1  0  0  0  0
 11 14  1  0  0  0  0
 14 15  1  0  0  0  0
 14 16  1  0  0  0  0
 14 17  1  0  0  0  0
 17 18  1  0  0  0  0
 17 19  1  0  0  0  0
 17 20  1  0  0  0  0
M  END
> <VM2 Rank>
12

> <Conf_Id>
127

> <Probability>
4.42

> <Sum Probability>
89.73

> <Delta G>
0.700

> <G>
54.636

> <E>
31.871

> <-TS>
22.765

> <U+W>
15.774

> <U>
70.231

> <W>
-54.456

> <W(PB)>
-56.330

> <W(SA)>
1.874

> <Valence>
1.441

> <Coulomb>
68.568

> <VdW>
0.222

> <VdW6>
-4.234

> <VdW12>
4.455

> <Bond>
0.148

> <Angle>
0.601

> <Pdih>
0.692

> <Idih>
0.000

> <Tether>
0.000

$$$$
VeraChem MOL file


 20 19  0  0  0  0  0  0  0  0999 V2000     
   20.9020   18.3885   19.8181 C   0  0  0  0  0  0  0  0  0  0  0  0
   21.6447   18.7538   19.0970 H   0  0  0  0  0  0  0  0  0  0  0  0
   21.4474   17.8986   20.6346 H   0  0  0  0  0  0  0  0  0  0  0  0
   20.2894   17.6309   19.3123 H   0  0  0  0  0  0  0  0  0  0  0  0
   20.0288   19.5549   20.3351 C   0  0  0  0  0  0  0  0  0  0  0  0
   19.5780   20.0713   19.4760 H   0  0  0  0  0  0  0  0  0  0  0  0
   20.6638   20.2986   20.8355 H   0  0  0  0  0  0  0  0  0  0  0  0
   18.8981   19.0913   21.2872 C   0  0  0  0  0  0  0  0  0  0  0  0
   18.3010   19.9600   21.5946 H   0  0  0  0  0  0  0  0  0  0  0  0
   18.2143   18.4291   20.7398 H   0  0  0  0  0  0  0  0  0  0  0  0
   19.4003   18.3504   22.5442 C   0  0  0  0  0  0  0  0  0  0  0  0
   19.9567   17.4581   22.2477 H   0  0  0  0  0  0  0  0  0  0  0  0
   18.5435   18.0316   23.1432 H   0  0  0  0  0  0  0  0  0  0  0  0
   20.2984   19.1872   23.4351 N   0  3  0  0  0  0  0  0  0  0  0  0
   19.8051   20.0421   23.7348 H   0  0  0  0  0  0  0  0  0  0  0  0
   21.1177   19.5143   22.9019 H   0  0  0  0  0  0  0  0  0  0  0  0
   20.7383   18.3717   24.6433 C   0  0  0  0  0  0  0  0  0  0  0  0
   19.8567   18.0631   25.2093 H   0  0  0  0  0  0  0  0  0  0  0  0
   21.2859   17.4903   24.3027 H   0  0  0  0  0  0  0  0  0  0  0  0
   21.3847   18.9855   25.2746 H   0  0  0  0  0  0  0  0  0  0  0  0
  1  2  1  0  0  0  0
  1  3  1  0  0  0  0
  1  4  1  0  0  0  0
  1  5  1  0  0  0  0
  5  6  1  0  0  0  0
  5  7  1  0  0  0  0
  5  8  1  0  0  0  0
  8  9  1  0  0  0  0
  8 10  1  0  0  0  0
  8 11  1  0  0  0  0
 11 12  1  0  0  0  0
 11 13  1  0  0  0  0
 11 14  1  0  0  0  0
 14 15  1  0  0  0  0
 14 16  1  0  0  0  0
 14 17  1  0  0  0  0
 17 18  1  0  0  0  0
 17 19  1  0  0  0  0
 17 20  1  0  0  0  0
M  END
> <VM2 Rank>
13

> <Conf_Id>
272

> <Probability>
2.40

> <Sum Probability>
92.14

> <Delta G>
1.063

> <G>
55.000

> <E>
32.227

> <-TS>
22.773

> <U+W>
16.130

> <U>
70.374

> <W>
-54.244

> <W(PB)>
-56.130

> <W(SA)>
1.887

> <Valence>
1.257

> <Coulomb>
69.240

> <VdW>
-0.123

> <VdW6>
-4.336

> <VdW12>
4.213

> <Bond>
0.128

> <Angle>
0.603

> <Pdih>
0.526

> <Idih>
0.000

> <Tether>
0.000

$$$$
VeraChem MOL file


 20 19  0  0  0  0  0  0  0  0999 V2000     
   20.5664   18.0555   19.8039 C   0  0  0  0  0  0  0  0  0  0  0  0
   21.0177   17.4722   20.6164 H   0  0  0  0  0  0  0  0  0  0  0  0
   20.2270   17.3469   19.0373 H   0  0  0  0  0  0  0  0  0  0  0  0
   21.3488   18.6824   19.3567 H   0  0  0  0  0  0  0  0  0  0  0  0
   19.3851   18.9160   20.3080 C   0  0  0  0  0  0  0  0  0  0  0  0
   18.6167   18.2669   20.7494 H   0  0  0  0  0  0  0  0  0  0  0  0
   18.9085   19.4069   19.4478 H   0  0  0  0  0  0  0  0  0  0  0  0
   19.8155   20.0017   21.3258 C   0  0  0  0  0  0  0  0  0  0  0  0
   20.5049   20.7023   20.8361 H   0  0  0  0  0  0  0  0  0  0  0  0
   18.9386   20.5927   21.6214 H   0  0  0  0  0  0  0  0  0  0  0  0
   20.4992   19.4410   22.5903 C   0  0  0  0  0  0  0  0  0  0  0  0
   20.7981   20.2692   23.2379 H   0  0  0  0  0  0  0  0  0  0  0  0
   21.3995   18.8900   22.3082 H   0  0  0  0  0  0  0  0  0  0  0  0
   19.6195   18.5134   23.4066 N   0  3  0  0  0  0  0  0  0  0  0  0
   19.3099   17.7200   22.8260 H   0  0  0  0  0  0  0  0  0  0  0  0
   18.7560   19.0009   23.6906 H   0  0  0  0  0  0  0  0  0  0  0  0
   20.3802   18.0164   24.6284 C   0  0  0  0  0  0  0  0  0  0  0  0
   20.6705   18.8709   25.2435 H   0  0  0  0  0  0  0  0  0  0  0  0
   19.7359   17.3495   25.2055 H   0  0  0  0  0  0  0  0  0  0  0  0
   21.2716   17.4761   24.3022 H   0  0  0  0  0  0  0  0  0  0  0  0
  1  2  1  0  0  0  0
  1  3  1  0  0  0  0
  1  4  1  0  0  0  0
  1  5  1  0  0  0  0
  5  6  1  0  0  0  0
  5  7  1  0  0  0  0
  5  8  1  0  0  0  0
  8  9  1  0  0  0  0
  8 10  1  0  0  0  0
  8 11  1  0  0  0  0
 11 12  1  0  0  0  0
 11 13  1  0  0  0  0
 11 14  1  0  0  0  0
 14 15  1  0  0  0  0
 14 16  1  0  0  0  0
 14 17  1  0  0  0  0
 17 18  1  0  0  0  0
 17 19  1  0  0  0  0
 17 20  1  0  0  0  0
M  END
> <VM2 Rank>
14

> <Conf_Id>
293

> <Probability>
2.02

> <Sum Probability>
94.16

> <Delta G>
1.166

> <G>
55.103

> <E>
32.330

> <-TS>
22.773

> <U+W>
16.234

> <U>
70.374

> <W>
-54.140

> <W(PB)>
-56.047

> <W(SA)>
1.907

> <Valence>
1.257

> <Coulomb>
69.240

> <VdW>
-0.123

> <VdW6>
-4.336

> <VdW12>
4.213

> <Bond>
0.128

> <Angle>
0.603

> <Pdih>
0.526

> <Idih>
0.000

> <Tether>
0.000

$$$$
VeraChem MOL file


 20 19  0  0  0  0  0  0  0  0999 V2000     
   19.2819   18.9365   19.6798 C   0  0  0  0  0  0  0  0  0  0  0  0
   18.8406   18.2598   18.9367 H   0  0  0  0  0  0  0  0  0  0  0  0
   18.4645   19.3247   20.3002 H   0  0  0  0  0  0  0  0  0  0  0  0
   19.7311   19.7796   19.1390 H   0  0  0  0  0  0  0  0  0  0  0  0
   20.3396   18.1943   20.5287 C   0  0  0  0  0  0  0  0  0  0  0  0
   21.0875   17.7490   19.8578 H   0  0  0  0  0  0  0  0  0  0  0  0
   19.8683   17.3541   21.0567 H   0  0  0  0  0  0  0  0  0  0  0  0
   21.0637   19.1178   21.5397 C   0  0  0  0  0  0  0  0  0  0  0  0
   21.8260   18.5408   22.0788 H   0  0  0  0  0  0  0  0  0  0  0  0
   21.6082   19.8972   20.9905 H   0  0  0  0  0  0  0  0  0  0  0  0
   20.1196   19.8007   22.5555 C   0  0  0  0  0  0  0  0  0  0  0  0
   19.4243   20.4479   22.0154 H   0  0  0  0  0  0  0  0  0  0  0  0
   20.7040   20.4297   23.2318 H   0  0  0  0  0  0  0  0  0  0  0  0
   19.2900   18.8524   23.4075 N   0  3  0  0  0  0  0  0  0  0  0  0
   18.7328   18.2311   22.8028 H   0  0  0  0  0  0  0  0  0  0  0  0
   18.5965   19.3912   23.9495 H   0  0  0  0  0  0  0  0  0  0  0  0
   20.1712   18.0421   24.3518 C   0  0  0  0  0  0  0  0  0  0  0  0
   19.5390   17.3983   24.9671 H   0  0  0  0  0  0  0  0  0  0  0  0
   20.8598   17.4289   23.7672 H   0  0  0  0  0  0  0  0  0  0  0  0
   20.7347   18.7245   24.9916 H   0  0  0  0  0  0  0  0  0  0  0  0
  1  2  1  0  0  0  0
  1  3  1  0  0  0  0
  1  4  1  0  0  0  0
  1  5  1  0  0  0  0
  5  6  1  0  0  0  0
  5  7  1  0  0  0  0
  5  8  1  0  0  0  0
  8  9  1  0  0  0  0
  8 10  1  0  0  0  0
  8 11  1  0  0  0  0
 11 12  1  0  0  0  0
 11 13  1  0  0  0  0
 11 14  1  0  0  0  0
 14 15  1  0  0  0  0
 14 16  1  0  0  0  0
 14 17  1  0  0  0  0
 17 18  1  0  0  0  0
 17 19  1  0  0  0  0
 17 20  1  0  0  0  0
M  END
> <VM2 Rank>
15

> <Conf_Id>
251

> <Probability>
1.65

> <Sum Probability>
95.81

> <Delta G>
1.288

> <G>
55.224

> <E>
32.217

> <-TS>
23.008

> <U+W>
16.120

> <U>
70.776

> <W>
-54.656

> <W(PB)>
-56.505

> <W(SA)>
1.849

> <Valence>
1.529

> <Coulomb>
69.166

> <VdW>
0.082

> <VdW6>
-5.166

> <VdW12>
5.248

> <Bond>
0.171

> <Angle>
0.752

> <Pdih>
0.605

> <Idih>
0.000

> <Tether>
0.000

$$$$
VeraChem MOL file


 20 19  0  0  0  0  0  0  0  0999 V2000     
   20.0370   19.6845   19.7116 C   0  0  0  0  0  0  0  0  0  0  0  0
   19.2136   19.2672   19.1175 H   0  0  0  0  0  0  0  0  0  0  0  0
   19.6302   20.4793   20.3492 H   0  0  0  0  0  0  0  0  0  0  0  0
   20.7483   20.1494   19.0167 H   0  0  0  0  0  0  0  0  0  0  0  0
   20.7335   18.5845   20.5452 C   0  0  0  0  0  0  0  0  0  0  0  0
   21.5547   19.0244   21.1273 H   0  0  0  0  0  0  0  0  0  0  0  0
   21.2002   17.8607   19.8624 H   0  0  0  0  0  0  0  0  0  0  0  0
   19.7619   17.8283   21.4851 C   0  0  0  0  0  0  0  0  0  0  0  0
   19.0017   17.3154   20.8813 H   0  0  0  0  0  0  0  0  0  0  0  0
   20.3090   17.0382   22.0153 H   0  0  0  0  0  0  0  0  0  0  0  0
   19.0448   18.7361   22.5105 C   0  0  0  0  0  0  0  0  0  0  0  0
   18.3829   18.1305   23.1345 H   0  0  0  0  0  0  0  0  0  0  0  0
   18.4270   19.4601   21.9735 H   0  0  0  0  0  0  0  0  0  0  0  0
   19.9634   19.5194   23.4356 N   0  3  0  0  0  0  0  0  0  0  0  0
   19.4082   20.1952   23.9835 H   0  0  0  0  0  0  0  0  0  0  0  0
   20.6144   20.0950   22.8816 H   0  0  0  0  0  0  0  0  0  0  0  0
   20.7254   18.5912   24.3750 C   0  0  0  0  0  0  0  0  0  0  0  0
   21.3568   17.9212   23.7880 H   0  0  0  0  0  0  0  0  0  0  0  0
   21.3482   19.1903   25.0428 H   0  0  0  0  0  0  0  0  0  0  0  0
   20.0118   18.0086   24.9614 H   0  0  0  0  0  0  0  0  0  0  0  0
  1  2  1  0  0  0  0
  1  3  1  0  0  0  0
  1  4  1  0  0  0  0
  1  5  1  0  0  0  0
  5  6  1  0  0  0  0
  5  7  1  0  0  0  0
  5  8  1  0  0  0  0
  8  9  1  0  0  0  0
  8 10  1  0  0  0  0
  8 11  1  0  0  0  0
 11 12  1  0  0  0  0
 11 13  1  0  0  0  0
 11 14  1  0  0  0  0
 14 15  1  0  0  0  0
 14 16  1  0  0  0  0
 14 17  1  0  0  0  0
 17 18  1  0  0  0  0
 17 19  1  0  0  0  0
 17 20  1  0  0  0  0
M  END
> <VM2 Rank>
16

> <Conf_Id>
183

> <Probability>
1.64

> <Sum Probability>
97.45

> <Delta G>
1.290

> <G>
55.226

> <E>
32.218

> <-TS>
23.008

> <U+W>
16.122

> <U>
70.777

> <W>
-54.655

> <W(PB)>
-56.491

> <W(SA)>
1.836

> <Valence>
1.529

> <Coulomb>
69.166

> <VdW>
0.082

> <VdW6>
-5.166

> <VdW12>
5.248

> <Bond>
0.171

> <Angle>
0.752

> <Pdih>
0.605

> <Idih>
0.000

> <Tether>
0.000

$$$$
VeraChem MOL file


 20 19  0  0  0  0  0  0  0  0999 V2000     
   19.7477   18.3611   19.2373 C   0  0  0  0  0  0  0  0  0  0  0  0
   18.6600   18.2283   19.3045 H   0  0  0  0  0  0  0  0  0  0  0  0
   19.9454   19.2713   18.6563 H   0  0  0  0  0  0  0  0  0  0  0  0
   20.1562   17.5099   18.6774 H   0  0  0  0  0  0  0  0  0  0  0  0
   20.3847   18.4470   20.6413 C   0  0  0  0  0  0  0  0  0  0  0  0
   21.4745   18.5473   20.5403 H   0  0  0  0  0  0  0  0  0  0  0  0
   20.2053   17.5041   21.1716 H   0  0  0  0  0  0  0  0  0  0  0  0
   19.8270   19.6428   21.4500 C   0  0  0  0  0  0  0  0  0  0  0  0
   20.0023   20.5608   20.8735 H   0  0  0  0  0  0  0  0  0  0  0  0
   18.7387   19.5566   21.5671 H   0  0  0  0  0  0  0  0  0  0  0  0
   20.4958   19.8176   22.8325 C   0  0  0  0  0  0  0  0  0  0  0  0
   20.4757   20.8808   23.0856 H   0  0  0  0  0  0  0  0  0  0  0  0
   21.5432   19.5092   22.7862 H   0  0  0  0  0  0  0  0  0  0  0  0
   19.8282   19.0943   23.9950 N   0  3  0  0  0  0  0  0  0  0  0  0
   18.8325   19.3567   24.0537 H   0  0  0  0  0  0  0  0  0  0  0  0
   20.2379   19.4304   24.8805 H   0  0  0  0  0  0  0  0  0  0  0  0
   19.9827   17.5812   23.9069 C   0  0  0  0  0  0  0  0  0  0  0  0
   19.5831   17.1287   24.8172 H   0  0  0  0  0  0  0  0  0  0  0  0
   19.4259   17.2112   23.0446 H   0  0  0  0  0  0  0  0  0  0  0  0
   21.0410   17.3315   23.8056 H   0  0  0  0  0  0  0  0  0  0  0  0
  1  2  1  0  0  0  0
  1  3  1  0  0  0  0
  1  4  1  0  0  0  0
  1  5  1  0  0  0  0
  5  6  1  0  0  0  0
  5  7  1  0  0  0  0
  5  8  1  0  0  0  0
  8  9  1  0  0  0  0
  8 10  1  0  0  0  0
  8 11  1  0  0  0  0
 11 12  1  0  0  0  0
 11 13  1  0  0  0  0
 11 14  1  0  0  0  0
 14 15  1  0  0  0  0
 14 16  1  0  0  0  0
 14 17  1  0  0  0  0
 17 18  1  0  0  0  0
 17 19  1  0  0  0  0
 17 20  1  0  0  0  0
M  END
> <VM2 Rank>
17

> <Conf_Id>
246

> <Probability>
0.69

> <Sum Probability>
98.14

> <Delta G>
1.807

> <G>
55.743

> <E>
33.198

> <-TS>
22.545

> <U+W>
17.102

> <U>
71.852

> <W>
-54.751

> <W(PB)>
-56.608

> <W(SA)>
1.858

> <Valence>
3.010

> <Coulomb>
68.712

> <VdW>
0.131

> <VdW6>
-4.514

> <VdW12>
4.645

> <Bond>
0.159

> <Angle>
0.999

> <Pdih>
1.851

> <Idih>
0.000

> <Tether>
0.000

$$$$
VeraChem MOL file


 20 19  0  0  0  0  0  0  0  0999 V2000     
   20.6265   19.2314   19.2740 C   0  0  0  0  0  0  0  0  0  0  0  0
   20.7653   20.3140   19.3922 H   0  0  0  0  0  0  0  0  0  0  0  0
   21.4971   18.8379   18.7335 H   0  0  0  0  0  0  0  0  0  0  0  0
   19.7400   19.0672   18.6476 H   0  0  0  0  0  0  0  0  0  0  0  0
   20.4761   18.5375   20.6452 C   0  0  0  0  0  0  0  0  0  0  0  0
   21.3972   18.6852   21.2215 H   0  0  0  0  0  0  0  0  0  0  0  0
   20.3710   17.4539   20.4944 H   0  0  0  0  0  0  0  0  0  0  0  0
   19.2519   19.0733   21.4259 C   0  0  0  0  0  0  0  0  0  0  0  0
   19.3424   20.1547   21.5923 H   0  0  0  0  0  0  0  0  0  0  0  0
   18.3577   18.9317   20.8045 H   0  0  0  0  0  0  0  0  0  0  0  0
   19.0130   18.3490   22.7703 C   0  0  0  0  0  0  0  0  0  0  0  0
   19.3139   17.3013   22.6927 H   0  0  0  0  0  0  0  0  0  0  0  0
   17.9403   18.3697   22.9793 H   0  0  0  0  0  0  0  0  0  0  0  0
   19.6922   18.9597   23.9893 N   0  3  0  0  0  0  0  0  0  0  0  0
   19.3154   18.5168   24.8419 H   0  0  0  0  0  0  0  0  0  0  0  0
   19.4364   19.9547   24.0790 H   0  0  0  0  0  0  0  0  0  0  0  0
   21.2063   18.7931   23.9583 C   0  0  0  0  0  0  0  0  0  0  0  0
   21.6174   19.3815   23.1367 H   0  0  0  0  0  0  0  0  0  0  0  0
   21.6234   19.1493   24.9028 H   0  0  0  0  0  0  0  0  0  0  0  0
   21.4507   17.7373   23.8228 H   0  0  0  0  0  0  0  0  0  0  0  0
  1  2  1  0  0  0  0
  1  3  1  0  0  0  0
  1  4  1  0  0  0  0
  1  5  1  0  0  0  0
  5  6  1  0  0  0  0
  5  7  1  0  0  0  0
  5  8  1  0  0  0  0
  8  9  1  0  0  0  0
  8 10  1  0  0  0  0
  8 11  1  0  0  0  0
 11 12  1  0  0  0  0
 11 13  1  0  0  0  0
 11 14  1  0  0  0  0
 14 15  1  0  0  0  0
 14 16  1  0  0  0  0
 14 17  1  0  0  0  0
 17 18  1  0  0  0  0
 17 19  1  0  0  0  0
 17 20  1  0  0  0  0
M  END
> <VM2 Rank>
18

> <Conf_Id>
114

> <Probability>
0.62

> <Sum Probability>
98.76

> <Delta G>
1.869

> <G>
55.805

> <E>
33.261

> <-TS>
22.544

> <U+W>
17.165

> <U>
71.852

> <W>
-54.688

> <W(PB)>
-56.549

> <W(SA)>
1.861

> <Valence>
3.010

> <Coulomb>
68.712

> <VdW>
0.131

> <VdW6>
-4.514

> <VdW12>
4.644

> <Bond>
0.159

> <Angle>
1.000

> <Pdih>
1.851

> <Idih>
0.000

> <Tether>
0.000

$$$$
VeraChem MOL file


 20 19  0  0  0  0  0  0  0  0999 V2000     
   20.5997   19.0677   19.2526 C   0  0  0  0  0  0  0  0  0  0  0  0
   19.8977   18.4490   18.6786 H   0  0  0  0  0  0  0  0  0  0  0  0
   20.3463   20.1218   19.0798 H   0  0  0  0  0  0  0  0  0  0  0  0
   21.6063   18.8938   18.8508 H   0  0  0  0  0  0  0  0  0  0  0  0
   20.5456   18.7223   20.7566 C   0  0  0  0  0  0  0  0  0  0  0  0
   21.2881   19.3329   21.2871 H   0  0  0  0  0  0  0  0  0  0  0  0
   20.8306   17.6706   20.9004 H   0  0  0  0  0  0  0  0  0  0  0  0
   19.1393   18.9694   21.3507 C   0  0  0  0  0  0  0  0  0  0  0  0
   18.8919   20.0373   21.2880 H   0  0  0  0  0  0  0  0  0  0  0  0
   18.3943   18.4445   20.7381 H   0  0  0  0  0  0  0  0  0  0  0  0
   18.9768   18.4898   22.8110 C   0  0  0  0  0  0  0  0  0  0  0  0
   19.1778   17.4181   22.8837 H   0  0  0  0  0  0  0  0  0  0  0  0
   17.9366   18.6521   23.1049 H   0  0  0  0  0  0  0  0  0  0  0  0
   19.8385   19.2073   23.8386 N   0  3  0  0  0  0  0  0  0  0  0  0
   19.3298   19.2554   24.7352 H   0  0  0  0  0  0  0  0  0  0  0  0
   19.9821   20.1906   23.5642 H   0  0  0  0  0  0  0  0  0  0  0  0
   21.1660   18.4875   24.0534 C   0  0  0  0  0  0  0  0  0  0  0  0
   21.7423   19.0206   24.8128 H   0  0  0  0  0  0  0  0  0  0  0  0
   20.9694   17.4679   24.3919 H   0  0  0  0  0  0  0  0  0  0  0  0
   21.7280   18.4620   23.1191 H   0  0  0  0  0  0  0  0  0  0  0  0
  1  2  1  0  0  0  0
  1  3  1  0  0  0  0
  1  4  1  0  0  0  0
  1  5  1  0  0  0  0
  5  6  1  0  0  0  0
  5  7  1  0  0  0  0
  5  8  1  0  0  0  0
  8  9  1  0  0  0  0
  8 10  1  0  0  0  0
  8 11  1  0  0  0  0
 11 12  1  0  0  0  0
 11 13  1  0  0  0  0
 11 14  1  0  0  0  0
 14 15  1  0  0  0  0
 14 16  1  0  0  0  0
 14 17  1  0  0  0  0
 17 18  1  0  0  0  0
 17 19  1  0  0  0  0
 17 20  1  0  0  0  0
M  END
> <VM2 Rank>
19

> <Conf_Id>
254

> <Probability>
0.50

> <Sum Probability>
99.26

> <Delta G>
2.000

> <G>
55.937

> <E>
33.104

> <-TS>
22.833

> <U+W>
17.008

> <U>
71.726

> <W>
-54.719

> <W(PB)>
-56.583

> <W(SA)>
1.864

> <Valence>
2.885

> <Coulomb>
68.822

> <VdW>
0.019

> <VdW6>
-4.600

> <VdW12>
4.619

> <Bond>
0.152

> <Angle>
0.862

> <Pdih>
1.871

> <Idih>
0.000

> <Tether>
0.000

$$$$
VeraChem MOL file


 20 19  0  0  0  0  0  0  0  0999 V2000     
   20.1916   17.7888   20.0712 C   0  0  0  0  0  0  0  0  0  0  0  0
   19.9063   17.1234   20.8952 H   0  0  0  0  0  0  0  0  0  0  0  0
   19.3186   17.9159   19.4179 H   0  0  0  0  0  0  0  0  0  0  0  0
   20.9727   17.2813   19.4905 H   0  0  0  0  0  0  0  0  0  0  0  0
   20.7006   19.1540   20.5884 C   0  0  0  0  0  0  0  0  0  0  0  0
   21.0396   19.7531   19.7316 H   0  0  0  0  0  0  0  0  0  0  0  0
   21.5862   19.0119   21.2211 H   0  0  0  0  0  0  0  0  0  0  0  0
   19.6195   19.9544   21.3552 C   0  0  0  0  0  0  0  0  0  0  0  0
   20.0319   20.9266   21.6555 H   0  0  0  0  0  0  0  0  0  0  0  0
   18.7941   20.1780   20.6665 H   0  0  0  0  0  0  0  0  0  0  0  0
   19.0315   19.2489   22.5999 C   0  0  0  0  0  0  0  0  0  0  0  0
   18.6217   18.2727   22.3303 H   0  0  0  0  0  0  0  0  0  0  0  0
   18.2060   19.8613   22.9716 H   0  0  0  0  0  0  0  0  0  0  0  0
   19.9912   19.0641   23.7659 N   0  3  0  0  0  0  0  0  0  0  0  0
   19.4612   19.1013   24.6505 H   0  0  0  0  0  0  0  0  0  0  0  0
   20.6477   19.8571   23.8197 H   0  0  0  0  0  0  0  0  0  0  0  0
   20.7317   17.7337   23.6824 C   0  0  0  0  0  0  0  0  0  0  0  0
   21.3835   17.6329   24.5529 H   0  0  0  0  0  0  0  0  0  0  0  0
   20.0042   16.9193   23.6732 H   0  0  0  0  0  0  0  0  0  0  0  0
   21.3309   17.7016   22.7719 H   0  0  0  0  0  0  0  0  0  0  0  0
  1  2  1  0  0  0  0
  1  3  1  0  0  0  0
  1  4  1  0  0  0  0
  1  5  1  0  0  0  0
  5  6  1  0  0  0  0
  5  7  1  0  0  0  0
  5  8  1  0  0  0  0
  8  9  1  0  0  0  0
  8 10  1  0  0  0  0
  8 11  1  0  0  0  0
 11 12  1  0  0  0  0
 11 13  1  0  0  0  0
 11 14  1  0  0  0  0
 14 15  1  0  0  0  0
 14 16  1  0  0  0  0
 14 17  1  0  0  0  0
 17 18  1  0  0  0  0
 17 19  1  0  0  0  0
 17 20  1  0  0  0  0
M  END
> <VM2 Rank>
20

> <Conf_Id>
309

> <Probability>
0.22

> <Sum Probability>
99.48

> <Delta G>
2.494

> <G>
56.431

> <E>
33.222

> <-TS>
23.208

> <U+W>
17.126

> <U>
72.122

> <W>
-54.996

> <W(PB)>
-56.810

> <W(SA)>
1.815

> <Valence>
3.197

> <Coulomb>
69.115

> <VdW>
-0.190

> <VdW6>
-5.585

> <VdW12>
5.395

> <Bond>
0.177

> <Angle>
1.207

> <Pdih>
1.813

> <Idih>
0.000

> <Tether>
0.000

$$$$
VeraChem MOL file


 20 19  0  0  0  0  0  0  0  0999 V2000     
   21.1594   18.7481   20.1117 C   0  0  0  0  0  0  0  0  0  0  0  0
   21.6847   17.9871   19.5203 H   0  0  0  0  0  0  0  0  0  0  0  0
   21.0669   19.6488   19.4911 H   0  0  0  0  0  0  0  0  0  0  0  0
   21.7916   18.9922   20.9741 H   0  0  0  0  0  0  0  0  0  0  0  0
   19.7695   18.2311   20.5494 C   0  0  0  0  0  0  0  0  0  0  0  0
   19.8778   17.3184   21.1495 H   0  0  0  0  0  0  0  0  0  0  0  0
   19.2045   17.9341   19.6547 H   0  0  0  0  0  0  0  0  0  0  0  0
   18.9460   19.2868   21.3270 C   0  0  0  0  0  0  0  0  0  0  0  0
   18.7583   20.1425   20.6650 H   0  0  0  0  0  0  0  0  0  0  0  0
   17.9588   18.8717   21.5686 H   0  0  0  0  0  0  0  0  0  0  0  0
   19.6030   19.8154   22.6238 C   0  0  0  0  0  0  0  0  0  0  0  0
   18.9819   20.6305   23.0042 H   0  0  0  0  0  0  0  0  0  0  0  0
   20.5929   20.2265   22.4130 H   0  0  0  0  0  0  0  0  0  0  0  0
   19.7306   18.8059   23.7550 N   0  3  0  0  0  0  0  0  0  0  0  0
   18.9310   18.1554   23.7478 H   0  0  0  0  0  0  0  0  0  0  0  0
   19.6604   19.2988   24.6589 H   0  0  0  0  0  0  0  0  0  0  0  0
   21.0575   18.0567   23.6961 C   0  0  0  0  0  0  0  0  0  0  0  0
   21.8774   18.7759   23.7518 H   0  0  0  0  0  0  0  0  0  0  0  0
   21.1162   17.3680   24.5417 H   0  0  0  0  0  0  0  0  0  0  0  0
   21.1233   17.4958   22.7633 H   0  0  0  0  0  0  0  0  0  0  0  0
  1  2  1  0  0  0  0
  1  3  1  0  0  0  0
  1  4  1  0  0  0  0
  1  5  1  0  0  0  0
  5  6  1  0  0  0  0
  5  7  1  0  0  0  0
  5  8  1  0  0  0  0
  8  9  1  0  0  0  0
  8 10  1  0  0  0  0
  8 11  1  0  0  0  0
 11 12  1  0  0  0  0
 11 13  1  0  0  0  0
 11 14  1  0  0  0  0
 14 15  1  0  0  0  0
 14 16  1  0  0  0  0
 14 17  1  0  0  0  0
 17 18  1  0  0  0  0
 17 19  1  0  0  0  0
 17 20  1  0  0  0  0
M  END
> <VM2 Rank>
21

> <Conf_Id>
294

> <Probability>
0.19

> <Sum Probability>
99.67

> <Delta G>
2.586

> <G>
56.522

> <E>
33.314

> <-TS>
23.208

> <U+W>
17.218

> <U>
72.122

> <W>
-54.904

> <W(PB)>
-56.725

> <W(SA)>
1.821

> <Valence>
3.197

> <Coulomb>
69.115

> <VdW>
-0.190

> <VdW6>
-5.584

> <VdW12>
5.394

> <Bond>
0.177

> <Angle>
1.207

> <Pdih>
1.813

> <Idih>
0.000

> <Tether>
0.000

$$$$
VeraChem MOL file


 20 19  0  0  0  0  0  0  0  0999 V2000     
   19.5905   19.9799   20.2744 C   0  0  0  0  0  0  0  0  0  0  0  0
   18.6457   19.9208   20.8268 H   0  0  0  0  0  0  0  0  0  0  0  0
   20.2482   20.7044   20.7722 H   0  0  0  0  0  0  0  0  0  0  0  0
   19.3550   20.3746   19.2775 H   0  0  0  0  0  0  0  0  0  0  0  0
   20.2676   18.5954   20.1556 C   0  0  0  0  0  0  0  0  0  0  0  0
   21.0705   18.6630   19.4081 H   0  0  0  0  0  0  0  0  0  0  0  0
   19.5462   17.8663   19.7606 H   0  0  0  0  0  0  0  0  0  0  0  0
   20.8780   18.0640   21.4776 C   0  0  0  0  0  0  0  0  0  0  0  0
   21.4078   17.1292   21.2513 H   0  0  0  0  0  0  0  0  0  0  0  0
   21.6440   18.7569   21.8477 H   0  0  0  0  0  0  0  0  0  0  0  0
   19.8441   17.7576   22.5861 C   0  0  0  0  0  0  0  0  0  0  0  0
   20.2974   17.0948   23.3274 H   0  0  0  0  0  0  0  0  0  0  0  0
   18.9937   17.2316   22.1449 H   0  0  0  0  0  0  0  0  0  0  0  0
   19.3066   18.9639   23.3401 N   0  3  0  0  0  0  0  0  0  0  0  0
   18.4974   18.6799   23.9142 H   0  0  0  0  0  0  0  0  0  0  0  0
   18.9370   19.6590   22.6767 H   0  0  0  0  0  0  0  0  0  0  0  0
   20.3793   19.5833   24.2292 C   0  0  0  0  0  0  0  0  0  0  0  0
   20.7423   18.8301   24.9317 H   0  0  0  0  0  0  0  0  0  0  0  0
   21.2041   19.9392   23.6091 H   0  0  0  0  0  0  0  0  0  0  0  0
   19.9471   20.4216   24.7799 H   0  0  0  0  0  0  0  0  0  0  0  0
  1  2  1  0  0  0  0
  1  3  1  0  0  0  0
  1  4  1  0  0  0  0
  1  5  1  0  0  0  0
  5  6  1  0  0  0  0
  5  7  1  0  0  0  0
  5  8  1  0  0  0  0
  8  9  1  0  0  0  0
  8 10  1  0  0  0  0
  8 11  1  0  0  0  0
 11 12  1  0  0  0  0
 11 13  1  0  0  0  0
 11 14  1  0  0  0  0
 14 15  1  0  0  0  0
 14 16  1  0  0  0  0
 14 17  1  0  0  0  0
 17 18  1  0  0  0  0
 17 19  1  0  0  0  0
 17 20  1  0  0  0  0
M  END
> <VM2 Rank>
22

> <Conf_Id>
153

> <Probability>
0.09

> <Sum Probability>
99.76

> <Delta G>
3.017

> <G>
56.953

> <E>
34.178

> <-TS>
22.775

> <U+W>
18.081

> <U>
72.490

> <W>
-54.409

> <W(PB)>
-56.269

> <W(SA)>
1.860

> <Valence>
2.738

> <Coulomb>
69.795

> <VdW>
-0.043

> <VdW6>
-5.334

> <VdW12>
5.290

> <Bond>
0.182

> <Angle>
1.135

> <Pdih>
1.421

> <Idih>
0.000

> <Tether>
0.000

$$$$
VeraChem MOL file


 20 19  0  0  0  0  0  0  0  0999 V2000     
   18.9670   19.3627   20.2484 C   0  0  0  0  0  0  0  0  0  0  0  0
   18.6170   19.6441   19.2467 H   0  0  0  0  0  0  0  0  0  0  0  0
   18.2161   18.6926   20.6871 H   0  0  0  0  0  0  0  0  0  0  0  0
   19.0113   20.2828   20.8422 H   0  0  0  0  0  0  0  0  0  0  0  0
   20.3491   18.6762   20.1590 C   0  0  0  0  0  0  0  0  0  0  0  0
   21.1008   19.4055   19.8259 H   0  0  0  0  0  0  0  0  0  0  0  0
   20.3058   17.9061   19.3760 H   0  0  0  0  0  0  0  0  0  0  0  0
   20.8185   18.0050   21.4751 C   0  0  0  0  0  0  0  0  0  0  0  0
   20.1034   17.2319   21.7831 H   0  0  0  0  0  0  0  0  0  0  0  0
   21.7570   17.4749   21.2659 H   0  0  0  0  0  0  0  0  0  0  0  0
   21.0873   18.9881   22.6382 C   0  0  0  0  0  0  0  0  0  0  0  0
   21.6395   19.8503   22.2558 H   0  0  0  0  0  0  0  0  0  0  0  0
   21.7139   18.4967   23.3868 H   0  0  0  0  0  0  0  0  0  0  0  0
   19.8553   19.5070   23.3630 N   0  3  0  0  0  0  0  0  0  0  0  0
   19.1925   19.9118   22.6873 H   0  0  0  0  0  0  0  0  0  0  0  0
   20.1223   20.2882   23.9824 H   0  0  0  0  0  0  0  0  0  0  0  0
   19.1888   18.4050   24.1792 C   0  0  0  0  0  0  0  0  0  0  0  0
   18.8516   17.6109   23.5103 H   0  0  0  0  0  0  0  0  0  0  0  0
   19.9080   18.0043   24.8967 H   0  0  0  0  0  0  0  0  0  0  0  0
   18.3320   18.8231   24.7121 H   0  0  0  0  0  0  0  0  0  0  0  0
  1  2  1  0  0  0  0
  1  3  1  0  0  0  0
  1  4  1  0  0  0  0
  1  5  1  0  0  0  0
  5  6  1  0  0  0  0
  5  7  1  0  0  0  0
  5  8  1  0  0  0  0
  8  9  1  0  0  0  0
  8 10  1  0  0  0  0
  8 11  1  0  0  0  0
 11 12  1  0  0  0  0
 11 13  1  0  0  0  0
 11 14  1  0  0  0  0
 14 15  1  0  0  0  0
 14 16  1  0  0  0  0
 14 17  1  0  0  0  0
 17 18  1  0  0  0  0
 17 19  1  0  0  0  0
 17 20  1  0  0  0  0
M  END
> <VM2 Rank>
23

> <Conf_Id>
56

> <Probability>
0.08

> <Sum Probability>
99.84

> <Delta G>
3.072

> <G>
57.009

> <E>
34.234

> <-TS>
22.774

> <U+W>
18.138

> <U>
72.490

> <W>
-54.353

> <W(PB)>
-56.201

> <W(SA)>
1.848

> <Valence>
2.738

> <Coulomb>
69.795

> <VdW>
-0.043

> <VdW6>
-5.334

> <VdW12>
5.290

> <Bond>
0.182

> <Angle>
1.135

> <Pdih>
1.421

> <Idih>
0.000

> <Tether>
0.000

$$$$
VeraChem MOL file


 20 19  0  0  0  0  0  0  0  0999 V2000     
   18.9213   18.4871   20.1528 C   0  0  0  0  0  0  0  0  0  0  0  0
   18.5769   18.0589   19.2025 H   0  0  0  0  0  0  0  0  0  0  0  0
   18.6972   17.7527   20.9354 H   0  0  0  0  0  0  0  0  0  0  0  0
   18.3349   19.3962   20.3392 H   0  0  0  0  0  0  0  0  0  0  0  0
   20.4338   18.7982   20.0822 C   0  0  0  0  0  0  0  0  0  0  0  0
   20.6329   19.3625   19.1602 H   0  0  0  0  0  0  0  0  0  0  0  0
   20.9964   17.8585   19.9902 H   0  0  0  0  0  0  0  0  0  0  0  0
   20.9779   19.6155   21.2817 C   0  0  0  0  0  0  0  0  0  0  0  0
   22.0367   19.8339   21.0894 H   0  0  0  0  0  0  0  0  0  0  0  0
   20.4753   20.5900   21.3397 H   0  0  0  0  0  0  0  0  0  0  0  0
   20.8855   18.8916   22.6418 C   0  0  0  0  0  0  0  0  0  0  0  0
   21.5981   19.3437   23.3362 H   0  0  0  0  0  0  0  0  0  0  0  0
   21.1531   17.8392   22.5190 H   0  0  0  0  0  0  0  0  0  0  0  0
   19.5203   18.9666   23.2989 N   0  3  0  0  0  0  0  0  0  0  0  0
   18.8010   18.5994   22.6599 H   0  0  0  0  0  0  0  0  0  0  0  0
   19.2614   19.9509   23.4669 H   0  0  0  0  0  0  0  0  0  0  0  0
   19.5272   18.1850   24.6056 C   0  0  0  0  0  0  0  0  0  0  0  0
   19.7714   17.1407   24.3991 H   0  0  0  0  0  0  0  0  0  0  0  0
   20.2746   18.6133   25.2769 H   0  0  0  0  0  0  0  0  0  0  0  0
   18.5391   18.2480   25.0668 H   0  0  0  0  0  0  0  0  0  0  0  0
  1  2  1  0  0  0  0
  1  3  1  0  0  0  0
  1  4  1  0  0  0  0
  1  5  1  0  0  0  0
  5  6  1  0  0  0  0
  5  7  1  0  0  0  0
  5  8  1  0  0  0  0
  8  9  1  0  0  0  0
  8 10  1  0  0  0  0
  8 11  1  0  0  0  0
 11 12  1  0  0  0  0
 11 13  1  0  0  0  0
 11 14  1  0  0  0  0
 14 15  1  0  0  0  0
 14 16  1  0  0  0  0
 14 17  1  0  0  0  0
 17 18  1  0  0  0  0
 17 19  1  0  0  0  0
 17 20  1  0  0  0  0
M  END
> <VM2 Rank>
24

> <Conf_Id>
26

> <Probability>
0.08

> <Sum Probability>
99.92

> <Delta G>
3.081

> <G>
57.018

> <E>
34.322

> <-TS>
22.695

> <U+W>
18.226

> <U>
72.042

> <W>
-53.816

> <W(PB)>
-55.689

> <W(SA)>
1.873

> <Valence>
2.428

> <Coulomb>
69.829

> <VdW>
-0.215

> <VdW6>
-4.563

> <VdW12>
4.348

> <Bond>
0.137

> <Angle>
0.936

> <Pdih>
1.356

> <Idih>
0.000

> <Tether>
0.000

$$$$
VeraChem MOL file


 20 19  0  0  0  0  0  0  0  0999 V2000     
   20.4692   20.0202   20.2176 C   0  0  0  0  0  0  0  0  0  0  0  0
   20.9400   20.3996   19.3013 H   0  0  0  0  0  0  0  0  0  0  0  0
   19.5581   20.6078   20.3903 H   0  0  0  0  0  0  0  0  0  0  0  0
   21.1718   20.2037   21.0389 H   0  0  0  0  0  0  0  0  0  0  0  0
   20.1481   18.5153   20.0702 C   0  0  0  0  0  0  0  0  0  0  0  0
   21.0860   17.9472   19.9939 H   0  0  0  0  0  0  0  0  0  0  0  0
   19.6217   18.3609   19.1178 H   0  0  0  0  0  0  0  0  0  0  0  0
   19.2763   17.9301   21.2105 C   0  0  0  0  0  0  0  0  0  0  0  0
   18.3046   18.4401   21.2488 H   0  0  0  0  0  0  0  0  0  0  0  0
   19.0570   16.8826   20.9646 H   0  0  0  0  0  0  0  0  0  0  0  0
   19.9429   17.9580   22.6023 C   0  0  0  0  0  0  0  0  0  0  0  0
   20.9971   17.6846   22.5124 H   0  0  0  0  0  0  0  0  0  0  0  0
   19.4556   17.2217   23.2465 H   0  0  0  0  0  0  0  0  0  0  0  0
   19.8521   19.2951   23.3128 N   0  3  0  0  0  0  0  0  0  0  0  0
   18.8639   19.5572   23.4501 H   0  0  0  0  0  0  0  0  0  0  0  0
   20.2524   20.0367   22.7207 H   0  0  0  0  0  0  0  0  0  0  0  0
   20.5774   19.2253   24.6497 C   0  0  0  0  0  0  0  0  0  0  0  0
   20.5037   20.1938   25.1492 H   0  0  0  0  0  0  0  0  0  0  0  0
   20.1143   18.4550   25.2702 H   0  0  0  0  0  0  0  0  0  0  0  0
   21.6273   18.9789   24.4772 H   0  0  0  0  0  0  0  0  0  0  0  0
  1  2  1  0  0  0  0
  1  3  1  0  0  0  0
  1  4  1  0  0  0  0
  1  5  1  0  0  0  0
  5  6  1  0  0  0  0
  5  7  1  0  0  0  0
  5  8  1  0  0  0  0
  8  9  1  0  0  0  0
  8 10  1  0  0  0  0
  8 11  1  0  0  0  0
 11 12  1  0  0  0  0
 11 13  1  0  0  0  0
 11 14  1  0  0  0  0
 14 15  1  0  0  0  0
 14 16  1  0  0  0  0
 14 17  1  0  0  0  0
 17 18  1  0  0  0  0
 17 19  1  0  0  0  0
 17 20  1  0  0  0  0
M  END
> <VM2 Rank>
25

> <Conf_Id>
104

> <Probability>
0.07

> <Sum Probability>
100.00

> <Delta G>
3.143

> <G>
57.079

> <E>
34.384

> <-TS>
22.695

> <U+W>
18.287

> <U>
72.042

> <W>
-53.754

> <W(PB)>
-55.644

> <W(SA)>
1.890

> <Valence>
2.428

> <Coulomb>
69.829

> <VdW>
-0.215

> <VdW6>
-4.563

> <VdW12>
4.348

> <Bond>
0.137

> <Angle>
0.936

> <Pdih>
1.356

> <Idih>
0.000

> <Tether>
0.000

$$$$
VeraChem MOL file


 20 19  0  0  0  0  0  0  0  0999 V2000     
   19.0667   18.1605   20.2301 C   0  0  0  0  0  0  0  0  0  0  0  0
   18.5130   17.9865   21.1586 H   0  0  0  0  0  0  0  0  0  0  0  0
   18.5457   18.9471   19.6691 H   0  0  0  0  0  0  0  0  0  0  0  0
   19.0138   17.2393   19.6355 H   0  0  0  0  0  0  0  0  0  0  0  0
   20.5408   18.5518   20.4905 C   0  0  0  0  0  0  0  0  0  0  0  0
   21.0308   18.6879   19.5161 H   0  0  0  0  0  0  0  0  0  0  0  0
   21.0774   17.7298   20.9841 H   0  0  0  0  0  0  0  0  0  0  0  0
   20.6964   19.8604   21.3064 C   0  0  0  0  0  0  0  0  0  0  0  0
   21.6316   20.3457   20.9970 H   0  0  0  0  0  0  0  0  0  0  0  0
   19.8970   20.5677   21.0493 H   0  0  0  0  0  0  0  0  0  0  0  0
   20.7684   19.6784   22.8412 C   0  0  0  0  0  0  0  0  0  0  0  0
   20.9343   20.6620   23.2879 H   0  0  0  0  0  0  0  0  0  0  0  0
   21.6218   19.0494   23.1063 H   0  0  0  0  0  0  0  0  0  0  0  0
   19.5313   19.1009   23.5075 N   0  3  0  0  0  0  0  0  0  0  0  0
   18.6880   19.3474   22.9692 H   0  0  0  0  0  0  0  0  0  0  0  0
   19.3994   19.5449   24.4297 H   0  0  0  0  0  0  0  0  0  0  0  0
   19.6623   17.5921   23.6873 C   0  0  0  0  0  0  0  0  0  0  0  0
   18.7608   17.2095   24.1708 H   0  0  0  0  0  0  0  0  0  0  0  0
   19.7866   17.1176   22.7126 H   0  0  0  0  0  0  0  0  0  0  0  0
   20.5321   17.3803   24.3128 H   0  0  0  0  0  0  0  0  0  0  0  0
  1  2  1  0  0  0  0
  1  3  1  0  0  0  0
  1  4  1  0  0  0  0
  1  5  1  0  0  0  0
  5  6  1  0  0  0  0
  5  7  1  0  0  0  0
  5  8  1  0  0  0  0
  8  9  1  0  0  0  0
  8 10  1  0  0  0  0
  8 11  1  0  0  0  0
 11 12  1  0  0  0  0
 11 13  1  0  0  0  0
 11 14  1  0  0  0  0
 14 15  1  0  0  0  0
 14 16  1  0  0  0  0
 14 17  1  0  0  0  0
 17 18  1  0  0  0  0
 17 19  1  0  0  0  0
 17 20  1  0  0  0  0
M  END
> <VM2 Rank>
26

> <Conf_Id>
91

> <Probability>
0.00

> <Sum Probability>
100.00

> <Delta G>
4.837

> <G>
58.774

> <E>
35.631

> <-TS>
23.142

> <U+W>
19.535

> <U>
74.442

> <W>
-54.908

> <W(PB)>
-56.715

> <W(SA)>
1.807

> <Valence>
5.113

> <Coulomb>
69.460

> <VdW>
-0.131

> <VdW6>
-5.678

> <VdW12>
5.547

> <Bond>
0.188

> <Angle>
1.349

> <Pdih>
3.576

> <Idih>
0.000

> <Tether>
0.000

$$$$
